/*---------------------------------------------------------------------------*\
  =========                 |
  \\      /  F ield         | OpenFOAM: The Open Source CFD Toolbox
   \\    /   O peration     | Website:  https://openfoam.org
    \\  /    A nd           | Version:  12
     \\/     M anipulation  |
\*---------------------------------------------------------------------------*/
Build  : 12-86e126a7bc4d
Exec   : foamRun
Date   : May 13 2025
Time   : 16:04:58
Host   : "vasiliy-Virtual-Machine"
PID    : 7112
I/O    : uncollated
Case   : /home/vasiliy/gits/inj_anal/buoyantCavity
nProcs : 1
sigFpe : Enabling floating point exception trapping (FOAM_SIGFPE).
fileModificationChecking : Monitoring run-time modified files using timeStampMaster (fileModificationSkew 10)
allowSystemOperations : Allowing user-supplied system call operations

// * * * * * * * * * * * * * * * * * * * * * * * * * * * * * * * * * * * * * //
Create time

Create mesh for time = 0

Selecting solver fluid
Selecting thermodynamics package 
{
    type            heRhoThermo;
    mixture         pureMixture;
    transport       const;
    thermo          hConst;
    equationOfState perfectGas;
    specie          specie;
    energy          sensibleEnthalpy;
}

Selecting turbulence model type RAS
Selecting RAS turbulence model kOmegaSST
RAS
{
    model           kOmegaSST;
    turbulence      on;
    printCoeffs     on;
    alphaK1         0.85;
    alphaK2         1;
    alphaOmega1     0.5;
    alphaOmega2     0.856;
    gamma1          0.555556;
    gamma2          0.44;
    beta1           0.075;
    beta2           0.0828;
    betaStar        0.09;
    a1              0.31;
    b1              1;
    c1              10;
    F3              false;
}

No MRF models present

Selecting patchDistMethod meshWave
Selecting thermophysical transport type RAS
Selecting default RAS thermophysical transport model unityLewisEddyDiffusivity

PIMPLE: Convergence criteria found
        p_rgh: tolerance 0.0001
        U: tolerance 0.0001
        h: tolerance 0.0001
        "(k|epsilon|omega)": tolerance 0.001


PIMPLE: Operating solver in steady-state mode with 1 outer corrector
PIMPLE: Operating solver in SIMPLE mode



Starting time loop

Time = 1s

DILUPBiCGStab:  Solving for h, Initial residual = 1, Final residual = 0.0121155, No Iterations 1
GAMG:  Solving for p_rgh, Initial residual = 0.999925, Final residual = 0.00355088, No Iterations 4
time step continuity errors : sum local = 9.04128e-05, global = -3.54419e-21, cumulative = -3.54419e-21
DILUPBiCGStab:  Solving for omega, Initial residual = 0.111967, Final residual = 0.00729277, No Iterations 1
DILUPBiCGStab:  Solving for k, Initial residual = 1, Final residual = 0.0114293, No Iterations 1
ExecutionTime = 0.282271 s  ClockTime = 0 s

Time = 2s

DILUPBiCGStab:  Solving for h, Initial residual = 0.978966, Final residual = 0.00674281, No Iterations 1
GAMG:  Solving for p_rgh, Initial residual = 0.976019, Final residual = 0.00312772, No Iterations 3
time step continuity errors : sum local = 0.000692446, global = 7.02063e-18, cumulative = 7.01709e-18
DILUPBiCGStab:  Solving for omega, Initial residual = 0.0295214, Final residual = 0.000255617, No Iterations 1
DILUPBiCGStab:  Solving for k, Initial residual = 0.939984, Final residual = 0.00549229, No Iterations 1
ExecutionTime = 0.301474 s  ClockTime = 0 s

Time = 3s

DILUPBiCGStab:  Solving for h, Initial residual = 0.309983, Final residual = 0.00209539, No Iterations 1
GAMG:  Solving for p_rgh, Initial residual = 0.550089, Final residual = 0.0041633, No Iterations 3
time step continuity errors : sum local = 0.00385303, global = 1.91315e-18, cumulative = 8.93023e-18
DILUPBiCGStab:  Solving for omega, Initial residual = 0.00157072, Final residual = 1.60759e-05, No Iterations 1
DILUPBiCGStab:  Solving for k, Initial residual = 0.589563, Final residual = 0.00451752, No Iterations 1
ExecutionTime = 0.322787 s  ClockTime = 0 s

Time = 4s

DILUPBiCGStab:  Solving for h, Initial residual = 0.177308, Final residual = 0.00115853, No Iterations 1
GAMG:  Solving for p_rgh, Initial residual = 0.159801, Final residual = 0.00109161, No Iterations 3
time step continuity errors : sum local = 0.00159582, global = -1.07947e-18, cumulative = 7.85076e-18
DILUPBiCGStab:  Solving for omega, Initial residual = 0.00013426, Final residual = 3.58465e-06, No Iterations 1
DILUPBiCGStab:  Solving for k, Initial residual = 0.407217, Final residual = 0.00391237, No Iterations 1
ExecutionTime = 0.343991 s  ClockTime = 0 s

Time = 5s

DILUPBiCGStab:  Solving for h, Initial residual = 0.120722, Final residual = 0.000787399, No Iterations 1
GAMG:  Solving for p_rgh, Initial residual = 0.157843, Final residual = 0.00139011, No Iterations 3
time step continuity errors : sum local = 0.00199732, global = -2.65111e-18, cumulative = 5.19965e-18
DILUPBiCGStab:  Solving for omega, Initial residual = 6.71887e-05, Final residual = 7.13855e-07, No Iterations 1
DILUPBiCGStab:  Solving for k, Initial residual = 0.302332, Final residual = 0.00341336, No Iterations 1
ExecutionTime = 0.363185 s  ClockTime = 0 s

Time = 6s

DILUPBiCGStab:  Solving for h, Initial residual = 0.089847, Final residual = 0.000595879, No Iterations 1
GAMG:  Solving for p_rgh, Initial residual = 0.0889396, Final residual = 0.000681997, No Iterations 3
time step continuity errors : sum local = 0.000975449, global = 5.82335e-18, cumulative = 1.1023e-17
DILUPBiCGStab:  Solving for omega, Initial residual = 3.28318e-05, Final residual = 6.80421e-07, No Iterations 1
DILUPBiCGStab:  Solving for k, Initial residual = 0.237631, Final residual = 0.00286359, No Iterations 1
ExecutionTime = 0.383273 s  ClockTime = 0 s

Time = 7s

DILUPBiCGStab:  Solving for h, Initial residual = 0.0704408, Final residual = 0.000473761, No Iterations 1
GAMG:  Solving for p_rgh, Initial residual = 0.0478599, Final residual = 0.000214388, No Iterations 3
time step continuity errors : sum local = 0.000325584, global = -5.62481e-18, cumulative = 5.39819e-18
DILUPBiCGStab:  Solving for omega, Initial residual = 1.82287e-05, Final residual = 3.83677e-07, No Iterations 1
DILUPBiCGStab:  Solving for k, Initial residual = 0.196295, Final residual = 0.00225384, No Iterations 1
ExecutionTime = 0.404654 s  ClockTime = 0 s

Time = 8s

DILUPBiCGStab:  Solving for h, Initial residual = 0.0572903, Final residual = 0.000386805, No Iterations 1
GAMG:  Solving for p_rgh, Initial residual = 0.0442349, Final residual = 0.000413061, No Iterations 3
time step continuity errors : sum local = 0.000657396, global = -1.96249e-18, cumulative = 3.4357e-18
DILUPBiCGStab:  Solving for omega, Initial residual = 1.0057e-05, Final residual = 1.98081e-07, No Iterations 1
DILUPBiCGStab:  Solving for k, Initial residual = 0.169202, Final residual = 0.00168644, No Iterations 1
ExecutionTime = 0.424115 s  ClockTime = 0 s

Time = 9s

DILUPBiCGStab:  Solving for h, Initial residual = 0.0478454, Final residual = 0.000320506, No Iterations 1
GAMG:  Solving for p_rgh, Initial residual = 0.03155, Final residual = 0.000234104, No Iterations 3
time step continuity errors : sum local = 0.000386357, global = -1.68874e-18, cumulative = 1.74696e-18
DILUPBiCGStab:  Solving for omega, Initial residual = 6.16894e-06, Final residual = 1.11088e-07, No Iterations 1
DILUPBiCGStab:  Solving for k, Initial residual = 0.151216, Final residual = 0.00122684, No Iterations 1
ExecutionTime = 0.442365 s  ClockTime = 0 s

Time = 10s

DILUPBiCGStab:  Solving for h, Initial residual = 0.0408177, Final residual = 0.000268879, No Iterations 1
GAMG:  Solving for p_rgh, Initial residual = 0.0215232, Final residual = 0.000135682, No Iterations 2
time step continuity errors : sum local = 0.000231016, global = 2.00462e-18, cumulative = 3.75159e-18
DILUPBiCGStab:  Solving for omega, Initial residual = 4.71851e-06, Final residual = 7.40049e-08, No Iterations 1
DILUPBiCGStab:  Solving for k, Initial residual = 0.139167, Final residual = 0.000918696, No Iterations 1
ExecutionTime = 0.460731 s  ClockTime = 0 s

Time = 11s

DILUPBiCGStab:  Solving for h, Initial residual = 0.0353836, Final residual = 0.000226574, No Iterations 1
GAMG:  Solving for p_rgh, Initial residual = 0.0191113, Final residual = 7.76537e-05, No Iterations 3
time step continuity errors : sum local = 0.00013526, global = 4.84401e-19, cumulative = 4.23599e-18
DILUPBiCGStab:  Solving for omega, Initial residual = 4.14287e-06, Final residual = 5.88762e-08, No Iterations 1
DILUPBiCGStab:  Solving for k, Initial residual = 0.131045, Final residual = 0.000715018, No Iterations 1
ExecutionTime = 0.479379 s  ClockTime = 0 s

Time = 12s

DILUPBiCGStab:  Solving for h, Initial residual = 0.031076, Final residual = 0.000191989, No Iterations 1
GAMG:  Solving for p_rgh, Initial residual = 0.0167639, Final residual = 6.23888e-05, No Iterations 3
time step continuity errors : sum local = 0.00011039, global = -1.34625e-18, cumulative = 2.88974e-18
DILUPBiCGStab:  Solving for omega, Initial residual = 3.90852e-06, Final residual = 5.18245e-08, No Iterations 1
DILUPBiCGStab:  Solving for k, Initial residual = 0.125522, Final residual = 0.000577571, No Iterations 1
ExecutionTime = 0.500203 s  ClockTime = 0 s

Time = 13s

DILUPBiCGStab:  Solving for h, Initial residual = 0.0276117, Final residual = 0.000163775, No Iterations 1
GAMG:  Solving for p_rgh, Initial residual = 0.0147864, Final residual = 8.77977e-05, No Iterations 2
time step continuity errors : sum local = 0.000156587, global = 1.04264e-18, cumulative = 3.93237e-18
DILUPBiCGStab:  Solving for omega, Initial residual = 3.63245e-06, Final residual = 4.72549e-08, No Iterations 1
DILUPBiCGStab:  Solving for k, Initial residual = 0.121729, Final residual = 0.000538416, No Iterations 1
ExecutionTime = 0.519093 s  ClockTime = 0 s

Time = 14s

DILUPBiCGStab:  Solving for h, Initial residual = 0.0247834, Final residual = 0.000140827, No Iterations 1
GAMG:  Solving for p_rgh, Initial residual = 0.0139075, Final residual = 0.000116312, No Iterations 2
time step continuity errors : sum local = 0.000208527, global = -3.04377e-19, cumulative = 3.62799e-18
DILUPBiCGStab:  Solving for omega, Initial residual = 3.30232e-06, Final residual = 4.34251e-08, No Iterations 1
DILUPBiCGStab:  Solving for k, Initial residual = 0.119105, Final residual = 0.000528059, No Iterations 1
ExecutionTime = 0.537834 s  ClockTime = 1 s

Time = 15s

DILUPBiCGStab:  Solving for h, Initial residual = 0.0224276, Final residual = 0.000121093, No Iterations 1
GAMG:  Solving for p_rgh, Initial residual = 0.0131721, Final residual = 0.000118251, No Iterations 2
time step continuity errors : sum local = 0.000212238, global = -7.4275e-19, cumulative = 2.88524e-18
DILUPBiCGStab:  Solving for omega, Initial residual = 3.00586e-06, Final residual = 3.95861e-08, No Iterations 1
DILUPBiCGStab:  Solving for k, Initial residual = 0.11726, Final residual = 0.000522516, No Iterations 1
ExecutionTime = 0.557581 s  ClockTime = 1 s

Time = 16s

DILUPBiCGStab:  Solving for h, Initial residual = 0.0204902, Final residual = 0.000105224, No Iterations 1
GAMG:  Solving for p_rgh, Initial residual = 0.0124266, Final residual = 7.76337e-05, No Iterations 2
time step continuity errors : sum local = 0.000138923, global = 1.19198e-19, cumulative = 3.00444e-18
DILUPBiCGStab:  Solving for omega, Initial residual = 2.84625e-06, Final residual = 3.76429e-08, No Iterations 1
DILUPBiCGStab:  Solving for k, Initial residual = 0.115937, Final residual = 0.000519187, No Iterations 1
ExecutionTime = 0.578482 s  ClockTime = 1 s

Time = 17s

DILUPBiCGStab:  Solving for h, Initial residual = 0.01883, Final residual = 9.16027e-05, No Iterations 1
GAMG:  Solving for p_rgh, Initial residual = 0.0118701, Final residual = 6.54991e-05, No Iterations 2
time step continuity errors : sum local = 0.000116644, global = 3.44891e-18, cumulative = 6.45335e-18
DILUPBiCGStab:  Solving for omega, Initial residual = 2.7134e-06, Final residual = 3.62386e-08, No Iterations 1
DILUPBiCGStab:  Solving for k, Initial residual = 0.11496, Final residual = 0.00051588, No Iterations 1
ExecutionTime = 0.598797 s  ClockTime = 1 s

Time = 18s

DILUPBiCGStab:  Solving for h, Initial residual = 0.0173661, Final residual = 7.98737e-05, No Iterations 1
GAMG:  Solving for p_rgh, Initial residual = 0.0115698, Final residual = 7.44446e-05, No Iterations 2
time step continuity errors : sum local = 0.000131714, global = -2.14531e-18, cumulative = 4.30804e-18
DILUPBiCGStab:  Solving for omega, Initial residual = 2.60777e-06, Final residual = 3.50138e-08, No Iterations 1
DILUPBiCGStab:  Solving for k, Initial residual = 0.114224, Final residual = 0.000514257, No Iterations 1
ExecutionTime = 0.615766 s  ClockTime = 1 s

Time = 19s

DILUPBiCGStab:  Solving for h, Initial residual = 0.0161077, Final residual = 7.03645e-05, No Iterations 1
GAMG:  Solving for p_rgh, Initial residual = 0.0112383, Final residual = 6.63934e-05, No Iterations 2
time step continuity errors : sum local = 0.000116544, global = -1.86613e-18, cumulative = 2.44191e-18
DILUPBiCGStab:  Solving for omega, Initial residual = 2.5532e-06, Final residual = 3.41965e-08, No Iterations 1
DILUPBiCGStab:  Solving for k, Initial residual = 0.113655, Final residual = 0.000512719, No Iterations 1
ExecutionTime = 0.633292 s  ClockTime = 1 s

Time = 20s

DILUPBiCGStab:  Solving for h, Initial residual = 0.0150282, Final residual = 6.27136e-05, No Iterations 1
GAMG:  Solving for p_rgh, Initial residual = 0.0109934, Final residual = 5.85016e-05, No Iterations 2
time step continuity errors : sum local = 0.000101826, global = -2.07882e-18, cumulative = 3.63095e-19
DILUPBiCGStab:  Solving for omega, Initial residual = 2.48686e-06, Final residual = 3.31054e-08, No Iterations 1
DILUPBiCGStab:  Solving for k, Initial residual = 0.113208, Final residual = 0.000511575, No Iterations 1
ExecutionTime = 0.651558 s  ClockTime = 1 s

Time = 21s

DILUPBiCGStab:  Solving for h, Initial residual = 0.0140865, Final residual = 5.66936e-05, No Iterations 1
GAMG:  Solving for p_rgh, Initial residual = 0.0107737, Final residual = 5.70169e-05, No Iterations 2
time step continuity errors : sum local = 9.84192e-05, global = -6.14505e-19, cumulative = -2.5141e-19
DILUPBiCGStab:  Solving for omega, Initial residual = 2.4501e-06, Final residual = 3.28249e-08, No Iterations 1
DILUPBiCGStab:  Solving for k, Initial residual = 0.112852, Final residual = 0.000511433, No Iterations 1
ExecutionTime = 0.669227 s  ClockTime = 1 s

Time = 22s

DILUPBiCGStab:  Solving for h, Initial residual = 0.0132512, Final residual = 5.16414e-05, No Iterations 1
GAMG:  Solving for p_rgh, Initial residual = 0.0106545, Final residual = 5.62892e-05, No Iterations 2
time step continuity errors : sum local = 9.61179e-05, global = 3.1819e-19, cumulative = 6.67803e-20
DILUPBiCGStab:  Solving for omega, Initial residual = 2.41057e-06, Final residual = 3.22105e-08, No Iterations 1
DILUPBiCGStab:  Solving for k, Initial residual = 0.112565, Final residual = 0.000511476, No Iterations 1
ExecutionTime = 0.687215 s  ClockTime = 1 s

Time = 23s

DILUPBiCGStab:  Solving for h, Initial residual = 0.0124816, Final residual = 4.72011e-05, No Iterations 1
GAMG:  Solving for p_rgh, Initial residual = 0.0106697, Final residual = 5.49604e-05, No Iterations 2
time step continuity errors : sum local = 9.27701e-05, global = -1.0591e-18, cumulative = -9.92318e-19
DILUPBiCGStab:  Solving for omega, Initial residual = 2.35538e-06, Final residual = 3.14298e-08, No Iterations 1
DILUPBiCGStab:  Solving for k, Initial residual = 0.112322, Final residual = 0.000511731, No Iterations 1
ExecutionTime = 0.704049 s  ClockTime = 1 s

Time = 24s

DILUPBiCGStab:  Solving for h, Initial residual = 0.01184, Final residual = 4.36645e-05, No Iterations 1
GAMG:  Solving for p_rgh, Initial residual = 0.0105892, Final residual = 5.42251e-05, No Iterations 2
time step continuity errors : sum local = 9.03816e-05, global = -1.48157e-18, cumulative = -2.47389e-18
DILUPBiCGStab:  Solving for omega, Initial residual = 2.33236e-06, Final residual = 3.17745e-08, No Iterations 1
DILUPBiCGStab:  Solving for k, Initial residual = 0.112118, Final residual = 0.000511756, No Iterations 1
ExecutionTime = 0.721798 s  ClockTime = 1 s

Time = 25s

DILUPBiCGStab:  Solving for h, Initial residual = 0.0112346, Final residual = 4.04201e-05, No Iterations 1
GAMG:  Solving for p_rgh, Initial residual = 0.0105498, Final residual = 5.35176e-05, No Iterations 2
time step continuity errors : sum local = 8.82934e-05, global = -1.10332e-18, cumulative = -3.57721e-18
DILUPBiCGStab:  Solving for omega, Initial residual = 2.32381e-06, Final residual = 3.16814e-08, No Iterations 1
DILUPBiCGStab:  Solving for k, Initial residual = 0.111938, Final residual = 0.000512649, No Iterations 1
ExecutionTime = 0.739807 s  ClockTime = 1 s

Time = 26s

DILUPBiCGStab:  Solving for h, Initial residual = 0.0107009, Final residual = 3.76397e-05, No Iterations 1
GAMG:  Solving for p_rgh, Initial residual = 0.0104884, Final residual = 5.2918e-05, No Iterations 2
time step continuity errors : sum local = 8.61761e-05, global = -5.74244e-19, cumulative = -4.15145e-18
DILUPBiCGStab:  Solving for omega, Initial residual = 2.30578e-06, Final residual = 3.17903e-08, No Iterations 1
DILUPBiCGStab:  Solving for k, Initial residual = 0.11178, Final residual = 0.000513705, No Iterations 1
bounding k, min: 2.17801e-16 max: 2.89377e-12 average: 8.22403e-13
ExecutionTime = 0.757841 s  ClockTime = 1 s

Time = 27s

DILUPBiCGStab:  Solving for h, Initial residual = 0.0101829, Final residual = 3.49684e-05, No Iterations 1
GAMG:  Solving for p_rgh, Initial residual = 0.0103795, Final residual = 5.20969e-05, No Iterations 2
time step continuity errors : sum local = 8.39599e-05, global = -1.33704e-18, cumulative = -5.4885e-18
DILUPBiCGStab:  Solving for omega, Initial residual = 2.30179e-06, Final residual = 3.24883e-08, No Iterations 1
DILUPBiCGStab:  Solving for k, Initial residual = 0.111645, Final residual = 0.000514527, No Iterations 1
bounding k, min: 8.61333e-17 max: 1.34147e-12 average: 3.77359e-13
ExecutionTime = 0.77616 s  ClockTime = 1 s

Time = 28s

DILUPBiCGStab:  Solving for h, Initial residual = 0.00975887, Final residual = 3.28195e-05, No Iterations 1
GAMG:  Solving for p_rgh, Initial residual = 0.0102102, Final residual = 5.1466e-05, No Iterations 2
time step continuity errors : sum local = 8.21073e-05, global = 9.20077e-20, cumulative = -5.39649e-18
DILUPBiCGStab:  Solving for omega, Initial residual = 2.25399e-06, Final residual = 3.16194e-08, No Iterations 1
DILUPBiCGStab:  Solving for k, Initial residual = 0.111533, Final residual = 0.00051484, No Iterations 1
bounding k, min: 7.19294e-17 max: 6.19775e-13 average: 1.73172e-13
ExecutionTime = 0.794121 s  ClockTime = 1 s

Time = 29s

DILUPBiCGStab:  Solving for h, Initial residual = 0.00934918, Final residual = 3.08149e-05, No Iterations 1
GAMG:  Solving for p_rgh, Initial residual = 0.0100435, Final residual = 5.09133e-05, No Iterations 2
time step continuity errors : sum local = 8.03684e-05, global = -1.07485e-19, cumulative = -5.50397e-18
DILUPBiCGStab:  Solving for omega, Initial residual = 2.27928e-06, Final residual = 3.21013e-08, No Iterations 1
DILUPBiCGStab:  Solving for k, Initial residual = 0.111422, Final residual = 0.000516108, No Iterations 1
bounding k, min: 6.67897e-17 max: 2.86776e-13 average: 7.94727e-14
ExecutionTime = 0.811769 s  ClockTime = 1 s

Time = 30s

DILUPBiCGStab:  Solving for h, Initial residual = 0.00897887, Final residual = 2.9064e-05, No Iterations 1
GAMG:  Solving for p_rgh, Initial residual = 0.00990544, Final residual = 5.06784e-05, No Iterations 2
time step continuity errors : sum local = 7.89023e-05, global = -7.28468e-20, cumulative = -5.57682e-18
DILUPBiCGStab:  Solving for omega, Initial residual = 2.2446e-06, Final residual = 3.09328e-08, No Iterations 1
DILUPBiCGStab:  Solving for k, Initial residual = 0.111333, Final residual = 0.000516054, No Iterations 1
bounding k, min: 6.62786e-17 max: 1.32947e-13 average: 3.6478e-14
ExecutionTime = 0.830561 s  ClockTime = 1 s

Time = 31s

DILUPBiCGStab:  Solving for h, Initial residual = 0.00864178, Final residual = 2.74223e-05, No Iterations 1
GAMG:  Solving for p_rgh, Initial residual = 0.00968602, Final residual = 5.03181e-05, No Iterations 2
time step continuity errors : sum local = 7.74247e-05, global = 6.44878e-19, cumulative = -4.93194e-18
DILUPBiCGStab:  Solving for omega, Initial residual = 2.16709e-06, Final residual = 2.9669e-08, No Iterations 1
DILUPBiCGStab:  Solving for k, Initial residual = 0.111325, Final residual = 0.000519907, No Iterations 1
bounding k, min: 6.57846e-17 max: 6.17552e-14 average: 1.67455e-14
ExecutionTime = 0.847205 s  ClockTime = 1 s

Time = 32s

DILUPBiCGStab:  Solving for h, Initial residual = 0.00833091, Final residual = 2.622e-05, No Iterations 1
GAMG:  Solving for p_rgh, Initial residual = 0.00947988, Final residual = 4.98843e-05, No Iterations 2
time step continuity errors : sum local = 7.57929e-05, global = 1.38104e-18, cumulative = -3.55091e-18
DILUPBiCGStab:  Solving for omega, Initial residual = 2.1587e-06, Final residual = 2.96573e-08, No Iterations 1
DILUPBiCGStab:  Solving for k, Initial residual = 0.111478, Final residual = 0.000526791, No Iterations 1
bounding k, min: 6.57019e-17 max: 2.86707e-14 average: 7.68843e-15
ExecutionTime = 0.86439 s  ClockTime = 1 s

Time = 33s

DILUPBiCGStab:  Solving for h, Initial residual = 0.00803332, Final residual = 2.49948e-05, No Iterations 1
GAMG:  Solving for p_rgh, Initial residual = 0.00925835, Final residual = 4.95795e-05, No Iterations 2
time step continuity errors : sum local = 7.43404e-05, global = -5.79059e-19, cumulative = -4.12997e-18
DILUPBiCGStab:  Solving for omega, Initial residual = 2.52403e-06, Final residual = 3.73824e-08, No Iterations 1
DILUPBiCGStab:  Solving for k, Initial residual = 0.112106, Final residual = 0.000546244, No Iterations 1
bounding k, min: 6.56963e-17 max: 1.33214e-14 average: 3.53209e-15
ExecutionTime = 0.882101 s  ClockTime = 1 s

Time = 34s

DILUPBiCGStab:  Solving for h, Initial residual = 0.00775921, Final residual = 2.38576e-05, No Iterations 1
GAMG:  Solving for p_rgh, Initial residual = 0.00903538, Final residual = 4.92015e-05, No Iterations 2
time step continuity errors : sum local = 7.29615e-05, global = -6.24554e-19, cumulative = -4.75452e-18
DILUPBiCGStab:  Solving for omega, Initial residual = 5.22389e-06, Final residual = 6.56136e-08, No Iterations 1
DILUPBiCGStab:  Solving for k, Initial residual = 0.114923, Final residual = 0.000616715, No Iterations 1
bounding k, min: 6.57112e-17 max: 6.20388e-15 average: 1.62735e-15
ExecutionTime = 0.898923 s  ClockTime = 1 s

Time = 35s

DILUPBiCGStab:  Solving for h, Initial residual = 0.00750452, Final residual = 2.28697e-05, No Iterations 1
GAMG:  Solving for p_rgh, Initial residual = 0.00880271, Final residual = 4.89177e-05, No Iterations 2
time step continuity errors : sum local = 7.16049e-05, global = -1.50746e-18, cumulative = -6.26198e-18
DILUPBiCGStab:  Solving for omega, Initial residual = 1.43313e-05, Final residual = 1.90794e-07, No Iterations 1
DILUPBiCGStab:  Solving for k, Initial residual = 0.128606, Final residual = 0.000897148, No Iterations 1
bounding k, min: 6.5943e-17 max: 2.87064e-15 average: 7.5981e-16
ExecutionTime = 0.916566 s  ClockTime = 1 s

Time = 36s

DILUPBiCGStab:  Solving for h, Initial residual = 0.00727969, Final residual = 2.20499e-05, No Iterations 1
GAMG:  Solving for p_rgh, Initial residual = 0.00860848, Final residual = 4.84945e-05, No Iterations 2
time step continuity errors : sum local = 7.02971e-05, global = 1.82167e-18, cumulative = -4.4403e-18
DILUPBiCGStab:  Solving for omega, Initial residual = 7.64309e-05, Final residual = 1.00327e-06, No Iterations 1
DILUPBiCGStab:  Solving for k, Initial residual = 0.182807, Final residual = 0.00241667, No Iterations 1
bounding k, min: 6.72698e-17 max: 1.3471e-15 average: 3.72659e-16
ExecutionTime = 0.933991 s  ClockTime = 1 s

Time = 37s

DILUPBiCGStab:  Solving for h, Initial residual = 0.00705033, Final residual = 2.12719e-05, No Iterations 1
GAMG:  Solving for p_rgh, Initial residual = 0.00840144, Final residual = 4.82281e-05, No Iterations 2
time step continuity errors : sum local = 6.90281e-05, global = -4.67599e-19, cumulative = -4.9079e-18
DILUPBiCGStab:  Solving for omega, Initial residual = 0.000123455, Final residual = 1.99495e-06, No Iterations 1
DILUPBiCGStab:  Solving for k, Initial residual = 0.307877, Final residual = 0.0037966, No Iterations 1
bounding k, min: 6.90514e-17 max: 6.42395e-16 average: 1.97533e-16
ExecutionTime = 0.952456 s  ClockTime = 1 s

Time = 38s

DILUPBiCGStab:  Solving for h, Initial residual = 0.00684667, Final residual = 2.06259e-05, No Iterations 1
GAMG:  Solving for p_rgh, Initial residual = 0.00825054, Final residual = 4.791e-05, No Iterations 2
time step continuity errors : sum local = 6.77131e-05, global = 9.38996e-19, cumulative = -3.96891e-18
DILUPBiCGStab:  Solving for omega, Initial residual = 0.000457315, Final residual = 6.7774e-06, No Iterations 1
DILUPBiCGStab:  Solving for k, Initial residual = 0.586478, Final residual = 0.00458741, No Iterations 1
bounding k, min: 6.98581e-17 max: 3.10396e-16 average: 1.19072e-16
ExecutionTime = 0.970453 s  ClockTime = 1 s

Time = 39s

DILUPBiCGStab:  Solving for h, Initial residual = 0.00663337, Final residual = 1.99394e-05, No Iterations 1
GAMG:  Solving for p_rgh, Initial residual = 0.00812443, Final residual = 4.7351e-05, No Iterations 2
time step continuity errors : sum local = 6.6076e-05, global = -1.69553e-18, cumulative = -5.66443e-18
DILUPBiCGStab:  Solving for omega, Initial residual = 0.000346785, Final residual = 5.15486e-06, No Iterations 1
DILUPBiCGStab:  Solving for k, Initial residual = 0.923681, Final residual = 0.00522399, No Iterations 1
bounding k, min: 6.99989e-17 max: 1.60819e-16 average: 9.47187e-17
ExecutionTime = 0.987223 s  ClockTime = 1 s

Time = 40s

DILUPBiCGStab:  Solving for h, Initial residual = 0.00646121, Final residual = 1.94511e-05, No Iterations 1
GAMG:  Solving for p_rgh, Initial residual = 0.00801168, Final residual = 4.72607e-05, No Iterations 2
time step continuity errors : sum local = 6.52842e-05, global = -1.07258e-19, cumulative = -5.77169e-18
DILUPBiCGStab:  Solving for omega, Initial residual = 3.02819e-05, Final residual = 3.31157e-07, No Iterations 1
DILUPBiCGStab:  Solving for k, Initial residual = 0.993424, Final residual = 0.00528816, No Iterations 1
bounding k, min: 7.00116e-17 max: 1.22665e-16 average: 9.19374e-17
ExecutionTime = 1.00446 s  ClockTime = 1 s

Time = 41s

DILUPBiCGStab:  Solving for h, Initial residual = 0.0062765, Final residual = 1.87914e-05, No Iterations 1
GAMG:  Solving for p_rgh, Initial residual = 0.00782059, Final residual = 4.67387e-05, No Iterations 2
time step continuity errors : sum local = 6.39088e-05, global = 7.89747e-19, cumulative = -4.98195e-18
DILUPBiCGStab:  Solving for omega, Initial residual = 4.18805e-06, Final residual = 9.23158e-08, No Iterations 1
DILUPBiCGStab:  Solving for k, Initial residual = 0.993424, Final residual = 0.00528994, No Iterations 1
bounding k, min: 7.00117e-17 max: 1.22682e-16 average: 9.19399e-17
ExecutionTime = 1.02278 s  ClockTime = 1 s

Time = 42s

DILUPBiCGStab:  Solving for h, Initial residual = 0.00610664, Final residual = 1.83238e-05, No Iterations 1
GAMG:  Solving for p_rgh, Initial residual = 0.00770454, Final residual = 4.67388e-05, No Iterations 2
time step continuity errors : sum local = 6.31701e-05, global = 2.01512e-18, cumulative = -2.96682e-18
DILUPBiCGStab:  Solving for omega, Initial residual = 2.39935e-06, Final residual = 3.71476e-08, No Iterations 1
DILUPBiCGStab:  Solving for k, Initial residual = 0.993424, Final residual = 0.00529166, No Iterations 1
bounding k, min: 7.00118e-17 max: 1.22686e-16 average: 9.19408e-17
ExecutionTime = 1.0395 s  ClockTime = 1 s

Time = 43s

DILUPBiCGStab:  Solving for h, Initial residual = 0.00594792, Final residual = 1.78466e-05, No Iterations 1
GAMG:  Solving for p_rgh, Initial residual = 0.00751794, Final residual = 4.60235e-05, No Iterations 2
time step continuity errors : sum local = 6.17666e-05, global = 4.01669e-18, cumulative = 1.04987e-18
DILUPBiCGStab:  Solving for omega, Initial residual = 2.22934e-06, Final residual = 3.17107e-08, No Iterations 1
DILUPBiCGStab:  Solving for k, Initial residual = 0.993424, Final residual = 0.0052934, No Iterations 1
bounding k, min: 7.00119e-17 max: 1.22689e-16 average: 9.19416e-17
ExecutionTime = 1.05632 s  ClockTime = 1 s

Time = 44s

DILUPBiCGStab:  Solving for h, Initial residual = 0.00581367, Final residual = 1.73717e-05, No Iterations 1
GAMG:  Solving for p_rgh, Initial residual = 0.00736448, Final residual = 4.59787e-05, No Iterations 2
time step continuity errors : sum local = 6.09511e-05, global = 4.32082e-18, cumulative = 5.37069e-18
DILUPBiCGStab:  Solving for omega, Initial residual = 2.2369e-06, Final residual = 3.16355e-08, No Iterations 1
DILUPBiCGStab:  Solving for k, Initial residual = 0.993424, Final residual = 0.00529513, No Iterations 1
bounding k, min: 7.0012e-17 max: 1.22693e-16 average: 9.19423e-17
ExecutionTime = 1.07307 s  ClockTime = 1 s

Time = 45s

DILUPBiCGStab:  Solving for h, Initial residual = 0.00567959, Final residual = 1.69781e-05, No Iterations 1
GAMG:  Solving for p_rgh, Initial residual = 0.00724933, Final residual = 4.55195e-05, No Iterations 2
time step continuity errors : sum local = 5.97274e-05, global = 1.35577e-18, cumulative = 6.72646e-18
DILUPBiCGStab:  Solving for omega, Initial residual = 2.18593e-06, Final residual = 3.14781e-08, No Iterations 1
DILUPBiCGStab:  Solving for k, Initial residual = 0.993424, Final residual = 0.00529687, No Iterations 1
bounding k, min: 7.0012e-17 max: 1.22696e-16 average: 9.19431e-17
ExecutionTime = 1.09146 s  ClockTime = 1 s

Time = 46s

DILUPBiCGStab:  Solving for h, Initial residual = 0.00554494, Final residual = 1.68234e-05, No Iterations 1
GAMG:  Solving for p_rgh, Initial residual = 0.0071316, Final residual = 4.53895e-05, No Iterations 2
time step continuity errors : sum local = 5.90563e-05, global = -1.21945e-19, cumulative = 6.60451e-18
DILUPBiCGStab:  Solving for omega, Initial residual = 2.17553e-06, Final residual = 3.13788e-08, No Iterations 1
DILUPBiCGStab:  Solving for k, Initial residual = 0.993424, Final residual = 0.00529862, No Iterations 1
bounding k, min: 7.00121e-17 max: 1.22702e-16 average: 9.19438e-17
ExecutionTime = 1.11052 s  ClockTime = 1 s

Time = 47s

DILUPBiCGStab:  Solving for h, Initial residual = 0.00541298, Final residual = 1.63489e-05, No Iterations 1
GAMG:  Solving for p_rgh, Initial residual = 0.00693339, Final residual = 4.47579e-05, No Iterations 2
time step continuity errors : sum local = 5.77455e-05, global = 1.64296e-18, cumulative = 8.24747e-18
DILUPBiCGStab:  Solving for omega, Initial residual = 2.24786e-06, Final residual = 3.32227e-08, No Iterations 1
DILUPBiCGStab:  Solving for k, Initial residual = 0.993424, Final residual = 0.00530037, No Iterations 1
bounding k, min: 7.00121e-17 max: 1.22714e-16 average: 9.19446e-17
ExecutionTime = 1.13089 s  ClockTime = 1 s

Time = 48s

DILUPBiCGStab:  Solving for h, Initial residual = 0.00528977, Final residual = 1.60047e-05, No Iterations 1
GAMG:  Solving for p_rgh, Initial residual = 0.00678186, Final residual = 4.4729e-05, No Iterations 2
time step continuity errors : sum local = 5.72541e-05, global = -9.30094e-19, cumulative = 7.31737e-18
DILUPBiCGStab:  Solving for omega, Initial residual = 2.22109e-06, Final residual = 3.26021e-08, No Iterations 1
DILUPBiCGStab:  Solving for k, Initial residual = 0.993424, Final residual = 0.00530213, No Iterations 1
bounding k, min: 7.00121e-17 max: 1.22726e-16 average: 9.19454e-17
ExecutionTime = 1.14811 s  ClockTime = 1 s

Time = 49s

DILUPBiCGStab:  Solving for h, Initial residual = 0.00517658, Final residual = 1.57617e-05, No Iterations 1
GAMG:  Solving for p_rgh, Initial residual = 0.00664915, Final residual = 4.43198e-05, No Iterations 2
time step continuity errors : sum local = 5.61403e-05, global = 1.08031e-18, cumulative = 8.39769e-18
DILUPBiCGStab:  Solving for omega, Initial residual = 2.22742e-06, Final residual = 3.31552e-08, No Iterations 1
DILUPBiCGStab:  Solving for k, Initial residual = 0.993424, Final residual = 0.00530389, No Iterations 1
bounding k, min: 7.0012e-17 max: 1.22739e-16 average: 9.19461e-17
ExecutionTime = 1.1666 s  ClockTime = 1 s

Time = 50s

DILUPBiCGStab:  Solving for h, Initial residual = 0.00506327, Final residual = 1.54112e-05, No Iterations 1
GAMG:  Solving for p_rgh, Initial residual = 0.00650009, Final residual = 4.41128e-05, No Iterations 2
time step continuity errors : sum local = 5.54146e-05, global = -1.08503e-19, cumulative = 8.28918e-18
DILUPBiCGStab:  Solving for omega, Initial residual = 2.23689e-06, Final residual = 3.34749e-08, No Iterations 1
DILUPBiCGStab:  Solving for k, Initial residual = 0.993424, Final residual = 0.00530564, No Iterations 1
bounding k, min: 7.0012e-17 max: 1.22751e-16 average: 9.19469e-17
ExecutionTime = 1.23402 s  ClockTime = 1 s

Time = 51s

DILUPBiCGStab:  Solving for h, Initial residual = 0.00495722, Final residual = 1.51159e-05, No Iterations 1
GAMG:  Solving for p_rgh, Initial residual = 0.00636976, Final residual = 4.337e-05, No Iterations 2
time step continuity errors : sum local = 5.40905e-05, global = 1.88733e-18, cumulative = 1.01765e-17
DILUPBiCGStab:  Solving for omega, Initial residual = 2.27069e-06, Final residual = 3.43842e-08, No Iterations 1
DILUPBiCGStab:  Solving for k, Initial residual = 0.993424, Final residual = 0.00530739, No Iterations 1
bounding k, min: 7.0012e-17 max: 1.22764e-16 average: 9.19477e-17
ExecutionTime = 1.25179 s  ClockTime = 1 s

Time = 52s

DILUPBiCGStab:  Solving for h, Initial residual = 0.00485424, Final residual = 1.48743e-05, No Iterations 1
GAMG:  Solving for p_rgh, Initial residual = 0.00621508, Final residual = 4.31855e-05, No Iterations 2
time step continuity errors : sum local = 5.33531e-05, global = 2.65086e-18, cumulative = 1.28274e-17
DILUPBiCGStab:  Solving for omega, Initial residual = 2.2914e-06, Final residual = 3.47238e-08, No Iterations 1
DILUPBiCGStab:  Solving for k, Initial residual = 0.993424, Final residual = 0.00530913, No Iterations 1
bounding k, min: 7.0012e-17 max: 1.22776e-16 average: 9.19485e-17
ExecutionTime = 1.26977 s  ClockTime = 1 s

Time = 53s

DILUPBiCGStab:  Solving for h, Initial residual = 0.00476639, Final residual = 1.46961e-05, No Iterations 1
GAMG:  Solving for p_rgh, Initial residual = 0.0060807, Final residual = 4.30202e-05, No Iterations 2
time step continuity errors : sum local = 5.27027e-05, global = 5.37254e-18, cumulative = 1.81999e-17
DILUPBiCGStab:  Solving for omega, Initial residual = 2.2503e-06, Final residual = 3.39209e-08, No Iterations 1
DILUPBiCGStab:  Solving for k, Initial residual = 0.993424, Final residual = 0.00531086, No Iterations 1
bounding k, min: 7.0012e-17 max: 1.22789e-16 average: 9.19492e-17
ExecutionTime = 1.28729 s  ClockTime = 1 s

Time = 54s

DILUPBiCGStab:  Solving for h, Initial residual = 0.00467375, Final residual = 1.44654e-05, No Iterations 1
GAMG:  Solving for p_rgh, Initial residual = 0.00596506, Final residual = 4.28144e-05, No Iterations 2
time step continuity errors : sum local = 5.2002e-05, global = 1.10233e-18, cumulative = 1.93022e-17
DILUPBiCGStab:  Solving for omega, Initial residual = 2.27408e-06, Final residual = 3.50121e-08, No Iterations 1
DILUPBiCGStab:  Solving for k, Initial residual = 0.993424, Final residual = 0.00531259, No Iterations 1
bounding k, min: 7.00119e-17 max: 1.22801e-16 average: 9.195e-17
ExecutionTime = 1.3057 s  ClockTime = 1 s

Time = 55s

DILUPBiCGStab:  Solving for h, Initial residual = 0.00458867, Final residual = 1.42317e-05, No Iterations 1
GAMG:  Solving for p_rgh, Initial residual = 0.00584319, Final residual = 4.22724e-05, No Iterations 2
time step continuity errors : sum local = 5.11088e-05, global = -3.99312e-18, cumulative = 1.53091e-17
DILUPBiCGStab:  Solving for omega, Initial residual = 2.31311e-06, Final residual = 3.58214e-08, No Iterations 1
DILUPBiCGStab:  Solving for k, Initial residual = 0.993424, Final residual = 0.0053143, No Iterations 1
bounding k, min: 7.00119e-17 max: 1.22813e-16 average: 9.19508e-17
ExecutionTime = 1.32391 s  ClockTime = 1 s

Time = 56s

DILUPBiCGStab:  Solving for h, Initial residual = 0.00450468, Final residual = 1.40473e-05, No Iterations 1
GAMG:  Solving for p_rgh, Initial residual = 0.00575031, Final residual = 4.17757e-05, No Iterations 2
time step continuity errors : sum local = 5.00188e-05, global = -1.27961e-18, cumulative = 1.40295e-17
DILUPBiCGStab:  Solving for omega, Initial residual = 2.2716e-06, Final residual = 3.55381e-08, No Iterations 1
DILUPBiCGStab:  Solving for k, Initial residual = 0.993424, Final residual = 0.00531602, No Iterations 1
bounding k, min: 7.00119e-17 max: 1.22825e-16 average: 9.19515e-17
ExecutionTime = 1.34096 s  ClockTime = 1 s

Time = 57s

DILUPBiCGStab:  Solving for h, Initial residual = 0.00442667, Final residual = 1.38274e-05, No Iterations 1
GAMG:  Solving for p_rgh, Initial residual = 0.00561623, Final residual = 4.16677e-05, No Iterations 2
time step continuity errors : sum local = 4.98125e-05, global = -5.90546e-18, cumulative = 8.12405e-18
DILUPBiCGStab:  Solving for omega, Initial residual = 2.34986e-06, Final residual = 3.58797e-08, No Iterations 1
DILUPBiCGStab:  Solving for k, Initial residual = 0.993424, Final residual = 0.00531772, No Iterations 1
bounding k, min: 7.00119e-17 max: 1.22837e-16 average: 9.19523e-17
ExecutionTime = 1.35958 s  ClockTime = 1 s

Time = 58s

DILUPBiCGStab:  Solving for h, Initial residual = 0.00434868, Final residual = 1.36888e-05, No Iterations 1
GAMG:  Solving for p_rgh, Initial residual = 0.00551512, Final residual = 4.13108e-05, No Iterations 2
time step continuity errors : sum local = 4.89071e-05, global = 1.41912e-18, cumulative = 9.54317e-18
DILUPBiCGStab:  Solving for omega, Initial residual = 2.31701e-06, Final residual = 3.5725e-08, No Iterations 1
DILUPBiCGStab:  Solving for k, Initial residual = 0.993424, Final residual = 0.0053194, No Iterations 1
bounding k, min: 7.00118e-17 max: 1.22848e-16 average: 9.19531e-17
ExecutionTime = 1.3785 s  ClockTime = 1 s

Time = 59s

DILUPBiCGStab:  Solving for h, Initial residual = 0.00427306, Final residual = 1.35343e-05, No Iterations 1
GAMG:  Solving for p_rgh, Initial residual = 0.00543444, Final residual = 4.07837e-05, No Iterations 2
time step continuity errors : sum local = 4.80833e-05, global = -5.71558e-18, cumulative = 3.82759e-18
DILUPBiCGStab:  Solving for omega, Initial residual = 2.33699e-06, Final residual = 3.67222e-08, No Iterations 1
DILUPBiCGStab:  Solving for k, Initial residual = 0.993424, Final residual = 0.00532108, No Iterations 1
bounding k, min: 7.00118e-17 max: 1.22859e-16 average: 9.19538e-17
ExecutionTime = 1.39671 s  ClockTime = 1 s

Time = 60s

DILUPBiCGStab:  Solving for h, Initial residual = 0.00419847, Final residual = 1.33371e-05, No Iterations 1
GAMG:  Solving for p_rgh, Initial residual = 0.00534995, Final residual = 4.07287e-05, No Iterations 2
time step continuity errors : sum local = 4.77938e-05, global = 1.21875e-18, cumulative = 5.04634e-18
DILUPBiCGStab:  Solving for omega, Initial residual = 2.31621e-06, Final residual = 3.66739e-08, No Iterations 1
DILUPBiCGStab:  Solving for k, Initial residual = 0.993424, Final residual = 0.00532275, No Iterations 1
bounding k, min: 7.00118e-17 max: 1.22869e-16 average: 9.19546e-17
ExecutionTime = 1.41546 s  ClockTime = 1 s

Time = 61s

DILUPBiCGStab:  Solving for h, Initial residual = 0.00413759, Final residual = 1.32197e-05, No Iterations 1
GAMG:  Solving for p_rgh, Initial residual = 0.00525959, Final residual = 4.03912e-05, No Iterations 2
time step continuity errors : sum local = 4.70613e-05, global = 4.74902e-19, cumulative = 5.52125e-18
DILUPBiCGStab:  Solving for omega, Initial residual = 2.29643e-06, Final residual = 3.62246e-08, No Iterations 1
DILUPBiCGStab:  Solving for k, Initial residual = 0.993424, Final residual = 0.00532441, No Iterations 1
bounding k, min: 7.00118e-17 max: 1.22881e-16 average: 9.19554e-17
ExecutionTime = 1.43371 s  ClockTime = 1 s

Time = 62s

DILUPBiCGStab:  Solving for h, Initial residual = 0.00407192, Final residual = 1.30731e-05, No Iterations 1
GAMG:  Solving for p_rgh, Initial residual = 0.0051434, Final residual = 3.99449e-05, No Iterations 2
time step continuity errors : sum local = 4.6378e-05, global = -3.31299e-18, cumulative = 2.20826e-18
DILUPBiCGStab:  Solving for omega, Initial residual = 2.30013e-06, Final residual = 3.6799e-08, No Iterations 1
DILUPBiCGStab:  Solving for k, Initial residual = 0.993424, Final residual = 0.00532606, No Iterations 1
bounding k, min: 7.00117e-17 max: 1.22895e-16 average: 9.19561e-17
ExecutionTime = 1.45073 s  ClockTime = 1 s

Time = 63s

DILUPBiCGStab:  Solving for h, Initial residual = 0.00400769, Final residual = 1.29736e-05, No Iterations 1
GAMG:  Solving for p_rgh, Initial residual = 0.00504643, Final residual = 3.95726e-05, No Iterations 2
time step continuity errors : sum local = 4.57307e-05, global = 4.81881e-19, cumulative = 2.69014e-18
DILUPBiCGStab:  Solving for omega, Initial residual = 2.3416e-06, Final residual = 3.74731e-08, No Iterations 1
DILUPBiCGStab:  Solving for k, Initial residual = 0.993424, Final residual = 0.00532772, No Iterations 1
bounding k, min: 7.00117e-17 max: 1.2291e-16 average: 9.19569e-17
ExecutionTime = 1.46804 s  ClockTime = 1 s

Time = 64s

DILUPBiCGStab:  Solving for h, Initial residual = 0.00395107, Final residual = 1.28314e-05, No Iterations 1
GAMG:  Solving for p_rgh, Initial residual = 0.00495419, Final residual = 3.96084e-05, No Iterations 2
time step continuity errors : sum local = 4.53891e-05, global = 3.61568e-20, cumulative = 2.7263e-18
DILUPBiCGStab:  Solving for omega, Initial residual = 2.35918e-06, Final residual = 3.80089e-08, No Iterations 1
DILUPBiCGStab:  Solving for k, Initial residual = 0.993424, Final residual = 0.00532939, No Iterations 1
bounding k, min: 7.00117e-17 max: 1.22924e-16 average: 9.19576e-17
ExecutionTime = 1.48569 s  ClockTime = 1 s

Time = 65s

DILUPBiCGStab:  Solving for h, Initial residual = 0.00389343, Final residual = 1.27037e-05, No Iterations 1
GAMG:  Solving for p_rgh, Initial residual = 0.00488264, Final residual = 3.91824e-05, No Iterations 2
time step continuity errors : sum local = 4.48672e-05, global = -1.41074e-19, cumulative = 2.58522e-18
DILUPBiCGStab:  Solving for omega, Initial residual = 2.37519e-06, Final residual = 3.81109e-08, No Iterations 1
DILUPBiCGStab:  Solving for k, Initial residual = 0.993424, Final residual = 0.00533109, No Iterations 1
bounding k, min: 7.00117e-17 max: 1.22939e-16 average: 9.19584e-17
ExecutionTime = 1.50378 s  ClockTime = 1 s

Time = 66s

DILUPBiCGStab:  Solving for h, Initial residual = 0.00383786, Final residual = 1.26196e-05, No Iterations 1
GAMG:  Solving for p_rgh, Initial residual = 0.00479721, Final residual = 3.92794e-05, No Iterations 2
time step continuity errors : sum local = 4.46091e-05, global = 4.00024e-18, cumulative = 6.58546e-18
DILUPBiCGStab:  Solving for omega, Initial residual = 2.36317e-06, Final residual = 3.79073e-08, No Iterations 1
DILUPBiCGStab:  Solving for k, Initial residual = 0.993424, Final residual = 0.00533277, No Iterations 1
bounding k, min: 7.00116e-17 max: 1.22953e-16 average: 9.19592e-17
ExecutionTime = 1.5206 s  ClockTime = 1 s

Time = 67s

DILUPBiCGStab:  Solving for h, Initial residual = 0.00378247, Final residual = 1.25354e-05, No Iterations 1
GAMG:  Solving for p_rgh, Initial residual = 0.00471018, Final residual = 3.90959e-05, No Iterations 2
time step continuity errors : sum local = 4.41998e-05, global = -4.57466e-18, cumulative = 2.0108e-18
DILUPBiCGStab:  Solving for omega, Initial residual = 2.37632e-06, Final residual = 3.8548e-08, No Iterations 1
DILUPBiCGStab:  Solving for k, Initial residual = 0.993424, Final residual = 0.00533446, No Iterations 1
bounding k, min: 7.00116e-17 max: 1.22968e-16 average: 9.19599e-17
ExecutionTime = 1.53938 s  ClockTime = 2 s

Time = 68s

DILUPBiCGStab:  Solving for h, Initial residual = 0.00372864, Final residual = 1.23884e-05, No Iterations 1
GAMG:  Solving for p_rgh, Initial residual = 0.00462261, Final residual = 3.86537e-05, No Iterations 2
time step continuity errors : sum local = 4.34909e-05, global = 1.09811e-18, cumulative = 3.10891e-18
DILUPBiCGStab:  Solving for omega, Initial residual = 2.36604e-06, Final residual = 3.85878e-08, No Iterations 1
DILUPBiCGStab:  Solving for k, Initial residual = 0.993424, Final residual = 0.00533614, No Iterations 1
bounding k, min: 7.00116e-17 max: 1.22982e-16 average: 9.19607e-17
ExecutionTime = 1.55801 s  ClockTime = 2 s

Time = 69s

DILUPBiCGStab:  Solving for h, Initial residual = 0.00368202, Final residual = 1.22811e-05, No Iterations 1
GAMG:  Solving for p_rgh, Initial residual = 0.00455519, Final residual = 3.83777e-05, No Iterations 2
time step continuity errors : sum local = 4.3023e-05, global = 5.37861e-19, cumulative = 3.64678e-18
DILUPBiCGStab:  Solving for omega, Initial residual = 2.32788e-06, Final residual = 3.82638e-08, No Iterations 1
DILUPBiCGStab:  Solving for k, Initial residual = 0.993424, Final residual = 0.0053378, No Iterations 1
bounding k, min: 7.00116e-17 max: 1.22996e-16 average: 9.19614e-17
ExecutionTime = 1.57574 s  ClockTime = 2 s

Time = 70s

DILUPBiCGStab:  Solving for h, Initial residual = 0.00363312, Final residual = 1.22062e-05, No Iterations 1
GAMG:  Solving for p_rgh, Initial residual = 0.00448128, Final residual = 3.83239e-05, No Iterations 2
time step continuity errors : sum local = 4.28198e-05, global = -1.65275e-20, cumulative = 3.63025e-18
DILUPBiCGStab:  Solving for omega, Initial residual = 2.35849e-06, Final residual = 3.91392e-08, No Iterations 1
DILUPBiCGStab:  Solving for k, Initial residual = 0.993424, Final residual = 0.00533945, No Iterations 1
bounding k, min: 7.00116e-17 max: 1.23009e-16 average: 9.19622e-17
ExecutionTime = 1.59647 s  ClockTime = 2 s

Time = 71s

DILUPBiCGStab:  Solving for h, Initial residual = 0.00358329, Final residual = 1.20849e-05, No Iterations 1
GAMG:  Solving for p_rgh, Initial residual = 0.00445046, Final residual = 3.81857e-05, No Iterations 2
time step continuity errors : sum local = 4.24014e-05, global = -2.70315e-18, cumulative = 9.27096e-19
DILUPBiCGStab:  Solving for omega, Initial residual = 2.36313e-06, Final residual = 3.85467e-08, No Iterations 1
DILUPBiCGStab:  Solving for k, Initial residual = 0.993424, Final residual = 0.0053411, No Iterations 1
bounding k, min: 7.00115e-17 max: 1.23023e-16 average: 9.19629e-17
ExecutionTime = 1.61548 s  ClockTime = 2 s

Time = 72s

DILUPBiCGStab:  Solving for h, Initial residual = 0.00353246, Final residual = 1.20103e-05, No Iterations 1
GAMG:  Solving for p_rgh, Initial residual = 0.0043697, Final residual = 3.75352e-05, No Iterations 2
time step continuity errors : sum local = 4.15627e-05, global = 9.90937e-19, cumulative = 1.91803e-18
DILUPBiCGStab:  Solving for omega, Initial residual = 2.4124e-06, Final residual = 4.00831e-08, No Iterations 1
DILUPBiCGStab:  Solving for k, Initial residual = 0.993424, Final residual = 0.00534272, No Iterations 1
bounding k, min: 7.00115e-17 max: 1.23036e-16 average: 9.19637e-17
ExecutionTime = 1.63615 s  ClockTime = 2 s

Time = 73s

DILUPBiCGStab:  Solving for h, Initial residual = 0.00348995, Final residual = 1.19152e-05, No Iterations 1
GAMG:  Solving for p_rgh, Initial residual = 0.00437083, Final residual = 3.72454e-05, No Iterations 2
time step continuity errors : sum local = 4.12231e-05, global = -4.32368e-18, cumulative = -2.40565e-18
DILUPBiCGStab:  Solving for omega, Initial residual = 2.52988e-06, Final residual = 4.1827e-08, No Iterations 1
DILUPBiCGStab:  Solving for k, Initial residual = 0.993424, Final residual = 0.00534435, No Iterations 1
bounding k, min: 7.00115e-17 max: 1.23048e-16 average: 9.19644e-17
ExecutionTime = 1.65597 s  ClockTime = 2 s

Time = 74s

DILUPBiCGStab:  Solving for h, Initial residual = 0.00344589, Final residual = 1.18256e-05, No Iterations 1
GAMG:  Solving for p_rgh, Initial residual = 0.00440949, Final residual = 3.7281e-05, No Iterations 2
time step continuity errors : sum local = 4.11215e-05, global = 3.66491e-18, cumulative = 1.25926e-18
DILUPBiCGStab:  Solving for omega, Initial residual = 2.56021e-06, Final residual = 4.33874e-08, No Iterations 1
DILUPBiCGStab:  Solving for k, Initial residual = 0.993424, Final residual = 0.00534596, No Iterations 1
bounding k, min: 7.00115e-17 max: 1.2306e-16 average: 9.19652e-17
ExecutionTime = 1.67552 s  ClockTime = 2 s

Time = 75s

DILUPBiCGStab:  Solving for h, Initial residual = 0.00340522, Final residual = 1.18106e-05, No Iterations 1
GAMG:  Solving for p_rgh, Initial residual = 0.004257, Final residual = 3.71251e-05, No Iterations 2
time step continuity errors : sum local = 4.08473e-05, global = -3.95232e-18, cumulative = -2.69306e-18
DILUPBiCGStab:  Solving for omega, Initial residual = 2.51684e-06, Final residual = 4.26496e-08, No Iterations 1
DILUPBiCGStab:  Solving for k, Initial residual = 0.993424, Final residual = 0.00534755, No Iterations 1
bounding k, min: 7.00114e-17 max: 1.2307e-16 average: 9.19659e-17
ExecutionTime = 1.69501 s  ClockTime = 2 s

Time = 76s

DILUPBiCGStab:  Solving for h, Initial residual = 0.00336451, Final residual = 1.17408e-05, No Iterations 1
GAMG:  Solving for p_rgh, Initial residual = 0.00418935, Final residual = 3.64955e-05, No Iterations 2
time step continuity errors : sum local = 4.01111e-05, global = -2.38315e-18, cumulative = -5.07622e-18
DILUPBiCGStab:  Solving for omega, Initial residual = 2.46121e-06, Final residual = 4.15601e-08, No Iterations 1
DILUPBiCGStab:  Solving for k, Initial residual = 0.993424, Final residual = 0.00534913, No Iterations 1
bounding k, min: 7.00114e-17 max: 1.23079e-16 average: 9.19667e-17
ExecutionTime = 1.71608 s  ClockTime = 2 s

Time = 77s

DILUPBiCGStab:  Solving for h, Initial residual = 0.00332634, Final residual = 1.16678e-05, No Iterations 1
GAMG:  Solving for p_rgh, Initial residual = 0.00418626, Final residual = 3.63355e-05, No Iterations 2
time step continuity errors : sum local = 3.96364e-05, global = -1.73941e-18, cumulative = -6.81562e-18
DILUPBiCGStab:  Solving for omega, Initial residual = 2.44898e-06, Final residual = 4.12685e-08, No Iterations 1
DILUPBiCGStab:  Solving for k, Initial residual = 0.993424, Final residual = 0.0053507, No Iterations 1
bounding k, min: 7.00114e-17 max: 1.23093e-16 average: 9.19674e-17
ExecutionTime = 1.73547 s  ClockTime = 2 s

Time = 78s

DILUPBiCGStab:  Solving for h, Initial residual = 0.00328939, Final residual = 1.16139e-05, No Iterations 1
GAMG:  Solving for p_rgh, Initial residual = 0.00411326, Final residual = 3.61744e-05, No Iterations 2
time step continuity errors : sum local = 3.93988e-05, global = 5.22306e-18, cumulative = -1.59256e-18
DILUPBiCGStab:  Solving for omega, Initial residual = 2.5162e-06, Final residual = 4.18656e-08, No Iterations 1
DILUPBiCGStab:  Solving for k, Initial residual = 0.993424, Final residual = 0.00535224, No Iterations 1
bounding k, min: 7.00114e-17 max: 1.23108e-16 average: 9.19681e-17
ExecutionTime = 1.75635 s  ClockTime = 2 s

Time = 79s

DILUPBiCGStab:  Solving for h, Initial residual = 0.00325378, Final residual = 1.15377e-05, No Iterations 1
GAMG:  Solving for p_rgh, Initial residual = 0.00397752, Final residual = 3.58533e-05, No Iterations 2
time step continuity errors : sum local = 3.90289e-05, global = 2.96611e-18, cumulative = 1.37355e-18
DILUPBiCGStab:  Solving for omega, Initial residual = 2.41872e-06, Final residual = 4.09399e-08, No Iterations 1
DILUPBiCGStab:  Solving for k, Initial residual = 0.993424, Final residual = 0.00535377, No Iterations 1
bounding k, min: 7.00114e-17 max: 1.23123e-16 average: 9.19689e-17
ExecutionTime = 1.77544 s  ClockTime = 2 s

Time = 80s

DILUPBiCGStab:  Solving for h, Initial residual = 0.00322073, Final residual = 1.14939e-05, No Iterations 1
GAMG:  Solving for p_rgh, Initial residual = 0.00388475, Final residual = 3.58609e-05, No Iterations 2
time step continuity errors : sum local = 3.8865e-05, global = 1.76745e-18, cumulative = 3.141e-18
DILUPBiCGStab:  Solving for omega, Initial residual = 2.41697e-06, Final residual = 4.13009e-08, No Iterations 1
DILUPBiCGStab:  Solving for k, Initial residual = 0.993424, Final residual = 0.00535528, No Iterations 1
bounding k, min: 7.00113e-17 max: 1.23138e-16 average: 9.19696e-17
ExecutionTime = 1.79439 s  ClockTime = 2 s

Time = 81s

DILUPBiCGStab:  Solving for h, Initial residual = 0.00318542, Final residual = 1.13946e-05, No Iterations 1
GAMG:  Solving for p_rgh, Initial residual = 0.00385347, Final residual = 3.57081e-05, No Iterations 2
time step continuity errors : sum local = 3.85432e-05, global = -8.59057e-19, cumulative = 2.28194e-18
DILUPBiCGStab:  Solving for omega, Initial residual = 2.44696e-06, Final residual = 4.12598e-08, No Iterations 1
DILUPBiCGStab:  Solving for k, Initial residual = 0.993424, Final residual = 0.00535679, No Iterations 1
bounding k, min: 7.00113e-17 max: 1.23152e-16 average: 9.19703e-17
ExecutionTime = 1.81583 s  ClockTime = 2 s

Time = 82s

DILUPBiCGStab:  Solving for h, Initial residual = 0.00315037, Final residual = 1.13542e-05, No Iterations 1
GAMG:  Solving for p_rgh, Initial residual = 0.00379434, Final residual = 3.52832e-05, No Iterations 2
time step continuity errors : sum local = 3.80763e-05, global = 8.44387e-19, cumulative = 3.12633e-18
DILUPBiCGStab:  Solving for omega, Initial residual = 2.42655e-06, Final residual = 4.13288e-08, No Iterations 1
DILUPBiCGStab:  Solving for k, Initial residual = 0.993424, Final residual = 0.00535827, No Iterations 1
bounding k, min: 7.00113e-17 max: 1.23166e-16 average: 9.19711e-17
ExecutionTime = 1.83443 s  ClockTime = 2 s

Time = 83s

DILUPBiCGStab:  Solving for h, Initial residual = 0.00312009, Final residual = 1.13359e-05, No Iterations 1
GAMG:  Solving for p_rgh, Initial residual = 0.00378883, Final residual = 3.52063e-05, No Iterations 2
time step continuity errors : sum local = 3.78065e-05, global = 3.09999e-19, cumulative = 3.43633e-18
DILUPBiCGStab:  Solving for omega, Initial residual = 2.44625e-06, Final residual = 4.15118e-08, No Iterations 1
DILUPBiCGStab:  Solving for k, Initial residual = 0.993424, Final residual = 0.00535973, No Iterations 1
bounding k, min: 7.00113e-17 max: 1.23179e-16 average: 9.19718e-17
ExecutionTime = 1.85322 s  ClockTime = 2 s

Time = 84s

DILUPBiCGStab:  Solving for h, Initial residual = 0.0030906, Final residual = 1.13075e-05, No Iterations 1
GAMG:  Solving for p_rgh, Initial residual = 0.00376395, Final residual = 3.50182e-05, No Iterations 2
time step continuity errors : sum local = 3.76297e-05, global = -4.33468e-18, cumulative = -8.98355e-19
DILUPBiCGStab:  Solving for omega, Initial residual = 2.46446e-06, Final residual = 4.20922e-08, No Iterations 1
DILUPBiCGStab:  Solving for k, Initial residual = 0.993424, Final residual = 0.00536118, No Iterations 1
bounding k, min: 7.00113e-17 max: 1.23193e-16 average: 9.19725e-17
ExecutionTime = 1.87085 s  ClockTime = 2 s

Time = 85s

DILUPBiCGStab:  Solving for h, Initial residual = 0.00306174, Final residual = 1.1235e-05, No Iterations 1
GAMG:  Solving for p_rgh, Initial residual = 0.00378719, Final residual = 3.48801e-05, No Iterations 2
time step continuity errors : sum local = 3.73501e-05, global = 1.87003e-18, cumulative = 9.71671e-19
DILUPBiCGStab:  Solving for omega, Initial residual = 2.53638e-06, Final residual = 4.36868e-08, No Iterations 1
DILUPBiCGStab:  Solving for k, Initial residual = 0.993424, Final residual = 0.00536262, No Iterations 1
bounding k, min: 7.00112e-17 max: 1.23205e-16 average: 9.19732e-17
ExecutionTime = 1.89092 s  ClockTime = 2 s

Time = 86s

DILUPBiCGStab:  Solving for h, Initial residual = 0.00303491, Final residual = 1.12728e-05, No Iterations 1
GAMG:  Solving for p_rgh, Initial residual = 0.00370311, Final residual = 3.48682e-05, No Iterations 2
time step continuity errors : sum local = 3.72195e-05, global = 7.10992e-18, cumulative = 8.0816e-18
DILUPBiCGStab:  Solving for omega, Initial residual = 2.42251e-06, Final residual = 4.23985e-08, No Iterations 1
DILUPBiCGStab:  Solving for k, Initial residual = 0.993424, Final residual = 0.00536404, No Iterations 1
bounding k, min: 7.00112e-17 max: 1.23217e-16 average: 9.1974e-17
ExecutionTime = 1.91065 s  ClockTime = 2 s

Time = 87s

DILUPBiCGStab:  Solving for h, Initial residual = 0.0030091, Final residual = 1.12309e-05, No Iterations 1
GAMG:  Solving for p_rgh, Initial residual = 0.00364664, Final residual = 3.48677e-05, No Iterations 2
time step continuity errors : sum local = 3.70981e-05, global = -5.71393e-18, cumulative = 2.36767e-18
DILUPBiCGStab:  Solving for omega, Initial residual = 2.39509e-06, Final residual = 4.16662e-08, No Iterations 1
DILUPBiCGStab:  Solving for k, Initial residual = 0.993424, Final residual = 0.00536545, No Iterations 1
bounding k, min: 7.00112e-17 max: 1.23229e-16 average: 9.19747e-17
ExecutionTime = 1.93002 s  ClockTime = 2 s

Time = 88s

DILUPBiCGStab:  Solving for h, Initial residual = 0.00298043, Final residual = 1.11928e-05, No Iterations 1
GAMG:  Solving for p_rgh, Initial residual = 0.00358644, Final residual = 3.48235e-05, No Iterations 2
time step continuity errors : sum local = 3.70236e-05, global = -5.42672e-18, cumulative = -3.05906e-18
DILUPBiCGStab:  Solving for omega, Initial residual = 2.40031e-06, Final residual = 4.24869e-08, No Iterations 1
DILUPBiCGStab:  Solving for k, Initial residual = 0.993424, Final residual = 0.00536685, No Iterations 1
bounding k, min: 7.00112e-17 max: 1.23239e-16 average: 9.19754e-17
ExecutionTime = 1.94978 s  ClockTime = 2 s

Time = 89s

DILUPBiCGStab:  Solving for h, Initial residual = 0.00295197, Final residual = 1.11052e-05, No Iterations 1
GAMG:  Solving for p_rgh, Initial residual = 0.00353454, Final residual = 3.47216e-05, No Iterations 2
time step continuity errors : sum local = 3.68326e-05, global = 4.13199e-18, cumulative = 1.07294e-18
DILUPBiCGStab:  Solving for omega, Initial residual = 2.35836e-06, Final residual = 4.17986e-08, No Iterations 1
DILUPBiCGStab:  Solving for k, Initial residual = 0.993424, Final residual = 0.00536823, No Iterations 1
bounding k, min: 7.00112e-17 max: 1.23249e-16 average: 9.19761e-17
ExecutionTime = 1.96886 s  ClockTime = 2 s

Time = 90s

DILUPBiCGStab:  Solving for h, Initial residual = 0.002927, Final residual = 1.1096e-05, No Iterations 1
GAMG:  Solving for p_rgh, Initial residual = 0.00348325, Final residual = 3.44506e-05, No Iterations 2
time step continuity errors : sum local = 3.6485e-05, global = 6.84817e-18, cumulative = 7.9211e-18
DILUPBiCGStab:  Solving for omega, Initial residual = 2.34154e-06, Final residual = 4.172e-08, No Iterations 1
DILUPBiCGStab:  Solving for k, Initial residual = 0.993424, Final residual = 0.0053696, No Iterations 1
bounding k, min: 7.00112e-17 max: 1.23258e-16 average: 9.19768e-17
ExecutionTime = 1.98791 s  ClockTime = 2 s

Time = 91s

DILUPBiCGStab:  Solving for h, Initial residual = 0.00290248, Final residual = 1.10613e-05, No Iterations 1
GAMG:  Solving for p_rgh, Initial residual = 0.00345367, Final residual = 7.72629e-06, No Iterations 3
time step continuity errors : sum local = 8.15221e-06, global = -3.53428e-18, cumulative = 4.38682e-18
DILUPBiCGStab:  Solving for omega, Initial residual = 2.3307e-06, Final residual = 4.13332e-08, No Iterations 1
DILUPBiCGStab:  Solving for k, Initial residual = 0.993424, Final residual = 0.00537095, No Iterations 1
bounding k, min: 7.00112e-17 max: 1.23273e-16 average: 9.19775e-17
ExecutionTime = 2.00981 s  ClockTime = 2 s

Time = 92s

DILUPBiCGStab:  Solving for h, Initial residual = 0.00287783, Final residual = 1.10305e-05, No Iterations 1
GAMG:  Solving for p_rgh, Initial residual = 0.00346437, Final residual = 3.11127e-05, No Iterations 2
time step continuity errors : sum local = 3.28014e-05, global = 6.86471e-18, cumulative = 1.12515e-17
DILUPBiCGStab:  Solving for omega, Initial residual = 2.32914e-06, Final residual = 4.11743e-08, No Iterations 1
DILUPBiCGStab:  Solving for k, Initial residual = 0.993424, Final residual = 0.00537229, No Iterations 1
bounding k, min: 7.00111e-17 max: 1.23288e-16 average: 9.19782e-17
ExecutionTime = 2.02878 s  ClockTime = 2 s

Time = 93s

DILUPBiCGStab:  Solving for h, Initial residual = 0.00285471, Final residual = 1.09876e-05, No Iterations 1
GAMG:  Solving for p_rgh, Initial residual = 0.00340856, Final residual = 7.57512e-06, No Iterations 3
time step continuity errors : sum local = 7.97244e-06, global = -6.04133e-19, cumulative = 1.06474e-17
DILUPBiCGStab:  Solving for omega, Initial residual = 2.33236e-06, Final residual = 4.1871e-08, No Iterations 1
DILUPBiCGStab:  Solving for k, Initial residual = 0.993424, Final residual = 0.00537359, No Iterations 1
bounding k, min: 7.00111e-17 max: 1.23302e-16 average: 9.19789e-17
ExecutionTime = 2.04949 s  ClockTime = 2 s

Time = 94s

DILUPBiCGStab:  Solving for h, Initial residual = 0.00283023, Final residual = 1.09604e-05, No Iterations 1
GAMG:  Solving for p_rgh, Initial residual = 0.00341368, Final residual = 3.22511e-05, No Iterations 2
time step continuity errors : sum local = 3.38979e-05, global = -3.39635e-18, cumulative = 7.25105e-18
DILUPBiCGStab:  Solving for omega, Initial residual = 2.34086e-06, Final residual = 4.21383e-08, No Iterations 1
DILUPBiCGStab:  Solving for k, Initial residual = 0.993424, Final residual = 0.0053749, No Iterations 1
bounding k, min: 7.00111e-17 max: 1.23315e-16 average: 9.19796e-17
ExecutionTime = 2.06879 s  ClockTime = 2 s

Time = 95s

DILUPBiCGStab:  Solving for h, Initial residual = 0.00280651, Final residual = 1.09042e-05, No Iterations 1
GAMG:  Solving for p_rgh, Initial residual = 0.00341279, Final residual = 7.87117e-06, No Iterations 3
time step continuity errors : sum local = 8.24836e-06, global = -1.7998e-18, cumulative = 5.45124e-18
DILUPBiCGStab:  Solving for omega, Initial residual = 2.4104e-06, Final residual = 4.32359e-08, No Iterations 1
DILUPBiCGStab:  Solving for k, Initial residual = 0.993424, Final residual = 0.00537619, No Iterations 1
bounding k, min: 7.00111e-17 max: 1.23327e-16 average: 9.19803e-17
ExecutionTime = 2.0901 s  ClockTime = 2 s

Time = 96s

DILUPBiCGStab:  Solving for h, Initial residual = 0.00278298, Final residual = 1.08701e-05, No Iterations 1
GAMG:  Solving for p_rgh, Initial residual = 0.00349577, Final residual = 3.16393e-05, No Iterations 2
time step continuity errors : sum local = 3.31077e-05, global = 1.33493e-18, cumulative = 6.78617e-18
DILUPBiCGStab:  Solving for omega, Initial residual = 2.46015e-06, Final residual = 4.42343e-08, No Iterations 1
DILUPBiCGStab:  Solving for k, Initial residual = 0.993424, Final residual = 0.00537748, No Iterations 1
bounding k, min: 7.00111e-17 max: 1.2334e-16 average: 9.19809e-17
ExecutionTime = 2.10848 s  ClockTime = 2 s

Time = 97s

DILUPBiCGStab:  Solving for h, Initial residual = 0.00276171, Final residual = 1.08518e-05, No Iterations 1
GAMG:  Solving for p_rgh, Initial residual = 0.00343689, Final residual = 7.79793e-06, No Iterations 3
time step continuity errors : sum local = 8.14362e-06, global = -1.79569e-18, cumulative = 4.99048e-18
DILUPBiCGStab:  Solving for omega, Initial residual = 2.41917e-06, Final residual = 4.3598e-08, No Iterations 1
DILUPBiCGStab:  Solving for k, Initial residual = 0.993424, Final residual = 0.00537874, No Iterations 1
bounding k, min: 7.00111e-17 max: 1.23352e-16 average: 9.19816e-17
ExecutionTime = 2.12898 s  ClockTime = 2 s

Time = 98s

DILUPBiCGStab:  Solving for h, Initial residual = 0.00274214, Final residual = 1.08281e-05, No Iterations 1
GAMG:  Solving for p_rgh, Initial residual = 0.00340276, Final residual = 3.16307e-05, No Iterations 2
time step continuity errors : sum local = 3.3008e-05, global = -3.47845e-18, cumulative = 1.51203e-18
DILUPBiCGStab:  Solving for omega, Initial residual = 2.43175e-06, Final residual = 4.36955e-08, No Iterations 1
DILUPBiCGStab:  Solving for k, Initial residual = 0.993424, Final residual = 0.00537999, No Iterations 1
bounding k, min: 7.00111e-17 max: 1.23365e-16 average: 9.19823e-17
ExecutionTime = 2.14723 s  ClockTime = 2 s

Time = 99s

DILUPBiCGStab:  Solving for h, Initial residual = 0.0027221, Final residual = 1.07933e-05, No Iterations 1
GAMG:  Solving for p_rgh, Initial residual = 0.003361, Final residual = 7.93101e-06, No Iterations 3
time step continuity errors : sum local = 8.27191e-06, global = 6.25603e-18, cumulative = 7.76806e-18
DILUPBiCGStab:  Solving for omega, Initial residual = 2.42967e-06, Final residual = 4.35108e-08, No Iterations 1
DILUPBiCGStab:  Solving for k, Initial residual = 0.993424, Final residual = 0.00538123, No Iterations 1
bounding k, min: 7.0011e-17 max: 1.23376e-16 average: 9.19829e-17
ExecutionTime = 2.16987 s  ClockTime = 2 s

Time = 100s

DILUPBiCGStab:  Solving for h, Initial residual = 0.00270365, Final residual = 1.07846e-05, No Iterations 1
GAMG:  Solving for p_rgh, Initial residual = 0.00342913, Final residual = 3.15623e-05, No Iterations 2
time step continuity errors : sum local = 3.28364e-05, global = 1.4572e-18, cumulative = 9.22526e-18
DILUPBiCGStab:  Solving for omega, Initial residual = 2.49009e-06, Final residual = 4.51074e-08, No Iterations 1
DILUPBiCGStab:  Solving for k, Initial residual = 0.993424, Final residual = 0.00538246, No Iterations 1
bounding k, min: 7.0011e-17 max: 1.23387e-16 average: 9.19836e-17
ExecutionTime = 2.23864 s  ClockTime = 2 s

Time = 101s

DILUPBiCGStab:  Solving for h, Initial residual = 0.00268636, Final residual = 1.0757e-05, No Iterations 1
GAMG:  Solving for p_rgh, Initial residual = 0.00331038, Final residual = 7.91806e-06, No Iterations 3
time step continuity errors : sum local = 8.23528e-06, global = -2.78427e-18, cumulative = 6.44099e-18
DILUPBiCGStab:  Solving for omega, Initial residual = 2.44229e-06, Final residual = 4.46511e-08, No Iterations 1
DILUPBiCGStab:  Solving for k, Initial residual = 0.993424, Final residual = 0.00538367, No Iterations 1
bounding k, min: 7.0011e-17 max: 1.23397e-16 average: 9.19842e-17
ExecutionTime = 2.25834 s  ClockTime = 2 s

Time = 102s

DILUPBiCGStab:  Solving for h, Initial residual = 0.0026665, Final residual = 1.07104e-05, No Iterations 1
GAMG:  Solving for p_rgh, Initial residual = 0.00329581, Final residual = 3.1176e-05, No Iterations 2
time step continuity errors : sum local = 3.24045e-05, global = -4.48692e-18, cumulative = 1.95407e-18
DILUPBiCGStab:  Solving for omega, Initial residual = 2.44668e-06, Final residual = 4.46157e-08, No Iterations 1
DILUPBiCGStab:  Solving for k, Initial residual = 0.993423, Final residual = 0.00538487, No Iterations 1
bounding k, min: 7.0011e-17 max: 1.23406e-16 average: 9.19849e-17
ExecutionTime = 2.27895 s  ClockTime = 2 s

Time = 103s

DILUPBiCGStab:  Solving for h, Initial residual = 0.00264632, Final residual = 1.06592e-05, No Iterations 1
GAMG:  Solving for p_rgh, Initial residual = 0.00318767, Final residual = 7.87802e-06, No Iterations 3
time step continuity errors : sum local = 8.18382e-06, global = 3.14262e-18, cumulative = 5.09669e-18
DILUPBiCGStab:  Solving for omega, Initial residual = 2.41445e-06, Final residual = 4.43478e-08, No Iterations 1
DILUPBiCGStab:  Solving for k, Initial residual = 0.993423, Final residual = 0.00538606, No Iterations 1
bounding k, min: 7.0011e-17 max: 1.23414e-16 average: 9.19855e-17
ExecutionTime = 2.30125 s  ClockTime = 2 s

Time = 104s

DILUPBiCGStab:  Solving for h, Initial residual = 0.00263073, Final residual = 1.06299e-05, No Iterations 1
GAMG:  Solving for p_rgh, Initial residual = 0.00317499, Final residual = 3.1532e-05, No Iterations 2
time step continuity errors : sum local = 3.27658e-05, global = -3.40453e-19, cumulative = 4.75624e-18
DILUPBiCGStab:  Solving for omega, Initial residual = 2.44346e-06, Final residual = 4.51234e-08, No Iterations 1
DILUPBiCGStab:  Solving for k, Initial residual = 0.993423, Final residual = 0.00538724, No Iterations 1
bounding k, min: 7.0011e-17 max: 1.23421e-16 average: 9.19861e-17
ExecutionTime = 2.3198 s  ClockTime = 2 s

Time = 105s

DILUPBiCGStab:  Solving for h, Initial residual = 0.0026132, Final residual = 1.05923e-05, No Iterations 1
GAMG:  Solving for p_rgh, Initial residual = 0.00316814, Final residual = 7.85187e-06, No Iterations 3
time step continuity errors : sum local = 8.15988e-06, global = -1.2453e-18, cumulative = 3.51094e-18
DILUPBiCGStab:  Solving for omega, Initial residual = 2.40605e-06, Final residual = 4.53751e-08, No Iterations 1
DILUPBiCGStab:  Solving for k, Initial residual = 0.993423, Final residual = 0.0053884, No Iterations 1
bounding k, min: 7.0011e-17 max: 1.23432e-16 average: 9.19868e-17
ExecutionTime = 2.33901 s  ClockTime = 2 s

Time = 106s

DILUPBiCGStab:  Solving for h, Initial residual = 0.00259406, Final residual = 1.0545e-05, No Iterations 1
GAMG:  Solving for p_rgh, Initial residual = 0.00310301, Final residual = 7.13733e-06, No Iterations 3
time step continuity errors : sum local = 7.41691e-06, global = -5.70957e-19, cumulative = 2.93998e-18
DILUPBiCGStab:  Solving for omega, Initial residual = 2.3917e-06, Final residual = 4.438e-08, No Iterations 1
DILUPBiCGStab:  Solving for k, Initial residual = 0.993423, Final residual = 0.00538955, No Iterations 1
bounding k, min: 7.0011e-17 max: 1.23445e-16 average: 9.19874e-17
ExecutionTime = 2.36042 s  ClockTime = 2 s

Time = 107s

DILUPBiCGStab:  Solving for h, Initial residual = 0.00257541, Final residual = 1.05016e-05, No Iterations 1
GAMG:  Solving for p_rgh, Initial residual = 0.00309017, Final residual = 7.10734e-06, No Iterations 3
time step continuity errors : sum local = 7.38069e-06, global = 2.07647e-18, cumulative = 5.01646e-18
DILUPBiCGStab:  Solving for omega, Initial residual = 2.35979e-06, Final residual = 4.3563e-08, No Iterations 1
DILUPBiCGStab:  Solving for k, Initial residual = 0.993423, Final residual = 0.00539068, No Iterations 1
bounding k, min: 7.0011e-17 max: 1.23458e-16 average: 9.1988e-17
ExecutionTime = 2.3808 s  ClockTime = 2 s

Time = 108s

DILUPBiCGStab:  Solving for h, Initial residual = 0.00255723, Final residual = 1.04579e-05, No Iterations 1
GAMG:  Solving for p_rgh, Initial residual = 0.00304272, Final residual = 7.23e-06, No Iterations 3
time step continuity errors : sum local = 7.49594e-06, global = -2.77218e-18, cumulative = 2.24428e-18
DILUPBiCGStab:  Solving for omega, Initial residual = 2.38788e-06, Final residual = 4.38992e-08, No Iterations 1
DILUPBiCGStab:  Solving for k, Initial residual = 0.993423, Final residual = 0.0053918, No Iterations 1
bounding k, min: 7.0011e-17 max: 1.23471e-16 average: 9.19887e-17
ExecutionTime = 2.3997 s  ClockTime = 2 s

Time = 109s

DILUPBiCGStab:  Solving for h, Initial residual = 0.00253945, Final residual = 1.04118e-05, No Iterations 1
GAMG:  Solving for p_rgh, Initial residual = 0.00300214, Final residual = 7.40001e-06, No Iterations 3
time step continuity errors : sum local = 7.67467e-06, global = 9.26862e-19, cumulative = 3.17114e-18
DILUPBiCGStab:  Solving for omega, Initial residual = 2.36925e-06, Final residual = 4.41494e-08, No Iterations 1
DILUPBiCGStab:  Solving for k, Initial residual = 0.993423, Final residual = 0.00539291, No Iterations 1
bounding k, min: 7.0011e-17 max: 1.23483e-16 average: 9.19893e-17
ExecutionTime = 2.42138 s  ClockTime = 2 s

Time = 110s

DILUPBiCGStab:  Solving for h, Initial residual = 0.00252216, Final residual = 1.03666e-05, No Iterations 1
GAMG:  Solving for p_rgh, Initial residual = 0.00295731, Final residual = 7.57736e-06, No Iterations 3
time step continuity errors : sum local = 7.84887e-06, global = 5.56287e-19, cumulative = 3.72743e-18
DILUPBiCGStab:  Solving for omega, Initial residual = 2.33304e-06, Final residual = 4.32667e-08, No Iterations 1
DILUPBiCGStab:  Solving for k, Initial residual = 0.993423, Final residual = 0.00539401, No Iterations 1
bounding k, min: 7.0011e-17 max: 1.23495e-16 average: 9.19899e-17
ExecutionTime = 2.44179 s  ClockTime = 2 s

Time = 111s

DILUPBiCGStab:  Solving for h, Initial residual = 0.00250522, Final residual = 1.0321e-05, No Iterations 1
GAMG:  Solving for p_rgh, Initial residual = 0.00297726, Final residual = 7.47245e-06, No Iterations 3
time step continuity errors : sum local = 7.7314e-06, global = 8.61237e-19, cumulative = 4.58867e-18
DILUPBiCGStab:  Solving for omega, Initial residual = 2.35619e-06, Final residual = 4.35569e-08, No Iterations 1
DILUPBiCGStab:  Solving for k, Initial residual = 0.993423, Final residual = 0.00539509, No Iterations 1
bounding k, min: 7.00109e-17 max: 1.23507e-16 average: 9.19905e-17
ExecutionTime = 2.46174 s  ClockTime = 2 s

Time = 112s

DILUPBiCGStab:  Solving for h, Initial residual = 0.00248872, Final residual = 1.02742e-05, No Iterations 1
GAMG:  Solving for p_rgh, Initial residual = 0.00297181, Final residual = 7.45644e-06, No Iterations 3
time step continuity errors : sum local = 7.71766e-06, global = -9.15836e-19, cumulative = 3.67283e-18
DILUPBiCGStab:  Solving for omega, Initial residual = 2.3674e-06, Final residual = 4.37283e-08, No Iterations 1
DILUPBiCGStab:  Solving for k, Initial residual = 0.993423, Final residual = 0.00539617, No Iterations 1
bounding k, min: 7.00109e-17 max: 1.23518e-16 average: 9.19911e-17
ExecutionTime = 2.48283 s  ClockTime = 2 s

Time = 113s

DILUPBiCGStab:  Solving for h, Initial residual = 0.00247255, Final residual = 1.02299e-05, No Iterations 1
GAMG:  Solving for p_rgh, Initial residual = 0.00292246, Final residual = 7.54354e-06, No Iterations 3
time step continuity errors : sum local = 7.80151e-06, global = -2.41256e-18, cumulative = 1.26027e-18
DILUPBiCGStab:  Solving for omega, Initial residual = 2.29791e-06, Final residual = 4.30559e-08, No Iterations 1
DILUPBiCGStab:  Solving for k, Initial residual = 0.993423, Final residual = 0.00539722, No Iterations 1
bounding k, min: 7.00109e-17 max: 1.2353e-16 average: 9.19917e-17
ExecutionTime = 2.5015 s  ClockTime = 2 s

Time = 114s

DILUPBiCGStab:  Solving for h, Initial residual = 0.00245678, Final residual = 1.0186e-05, No Iterations 1
GAMG:  Solving for p_rgh, Initial residual = 0.00288317, Final residual = 7.59132e-06, No Iterations 3
time step continuity errors : sum local = 7.85094e-06, global = -9.42138e-19, cumulative = 3.18135e-19
DILUPBiCGStab:  Solving for omega, Initial residual = 2.30381e-06, Final residual = 4.29255e-08, No Iterations 1
DILUPBiCGStab:  Solving for k, Initial residual = 0.993423, Final residual = 0.00539827, No Iterations 1
bounding k, min: 7.00109e-17 max: 1.23541e-16 average: 9.19923e-17
ExecutionTime = 2.52166 s  ClockTime = 2 s

Time = 115s

DILUPBiCGStab:  Solving for h, Initial residual = 0.00244145, Final residual = 1.01435e-05, No Iterations 1
GAMG:  Solving for p_rgh, Initial residual = 0.00288344, Final residual = 7.63439e-06, No Iterations 3
time step continuity errors : sum local = 7.89162e-06, global = -5.70948e-19, cumulative = -2.52813e-19
DILUPBiCGStab:  Solving for omega, Initial residual = 2.35139e-06, Final residual = 4.37877e-08, No Iterations 1
DILUPBiCGStab:  Solving for k, Initial residual = 0.993423, Final residual = 0.00539929, No Iterations 1
bounding k, min: 7.00109e-17 max: 1.23553e-16 average: 9.19929e-17
ExecutionTime = 2.54076 s  ClockTime = 3 s

Time = 116s

DILUPBiCGStab:  Solving for h, Initial residual = 0.00242645, Final residual = 1.0103e-05, No Iterations 1
GAMG:  Solving for p_rgh, Initial residual = 0.0029166, Final residual = 7.6558e-06, No Iterations 3
time step continuity errors : sum local = 7.91317e-06, global = -2.03847e-18, cumulative = -2.29128e-18
DILUPBiCGStab:  Solving for omega, Initial residual = 2.3629e-06, Final residual = 4.3884e-08, No Iterations 1
DILUPBiCGStab:  Solving for k, Initial residual = 0.993423, Final residual = 0.0054003, No Iterations 1
bounding k, min: 7.00109e-17 max: 1.23564e-16 average: 9.19934e-17
ExecutionTime = 2.56049 s  ClockTime = 3 s

Time = 117s

DILUPBiCGStab:  Solving for h, Initial residual = 0.00241169, Final residual = 1.00615e-05, No Iterations 1
GAMG:  Solving for p_rgh, Initial residual = 0.0029139, Final residual = 7.70107e-06, No Iterations 3
time step continuity errors : sum local = 7.95649e-06, global = 4.78747e-18, cumulative = 2.49619e-18
DILUPBiCGStab:  Solving for omega, Initial residual = 2.38554e-06, Final residual = 4.41984e-08, No Iterations 1
DILUPBiCGStab:  Solving for k, Initial residual = 0.993423, Final residual = 0.0054013, No Iterations 1
bounding k, min: 7.00109e-17 max: 1.23576e-16 average: 9.1994e-17
ExecutionTime = 2.5812 s  ClockTime = 3 s

Time = 118s

DILUPBiCGStab:  Solving for h, Initial residual = 0.00239723, Final residual = 1.00212e-05, No Iterations 1
GAMG:  Solving for p_rgh, Initial residual = 0.00288976, Final residual = 7.79774e-06, No Iterations 3
time step continuity errors : sum local = 8.05888e-06, global = 1.60925e-18, cumulative = 4.10543e-18
DILUPBiCGStab:  Solving for omega, Initial residual = 2.33874e-06, Final residual = 4.38533e-08, No Iterations 1
DILUPBiCGStab:  Solving for k, Initial residual = 0.993423, Final residual = 0.00540227, No Iterations 1
bounding k, min: 7.00109e-17 max: 1.23588e-16 average: 9.19946e-17
ExecutionTime = 2.60045 s  ClockTime = 3 s

Time = 119s

DILUPBiCGStab:  Solving for h, Initial residual = 0.00238315, Final residual = 9.97834e-06, No Iterations 1
GAMG:  Solving for p_rgh, Initial residual = 0.0029016, Final residual = 7.82925e-06, No Iterations 3
time step continuity errors : sum local = 8.08378e-06, global = -2.58484e-18, cumulative = 1.52059e-18
DILUPBiCGStab:  Solving for omega, Initial residual = 2.34782e-06, Final residual = 4.40275e-08, No Iterations 1
DILUPBiCGStab:  Solving for k, Initial residual = 0.993423, Final residual = 0.00540324, No Iterations 1
bounding k, min: 7.00109e-17 max: 1.23599e-16 average: 9.19951e-17
ExecutionTime = 2.62136 s  ClockTime = 3 s

Time = 120s

DILUPBiCGStab:  Solving for h, Initial residual = 0.00236937, Final residual = 9.93534e-06, No Iterations 1
GAMG:  Solving for p_rgh, Initial residual = 0.00286967, Final residual = 7.84255e-06, No Iterations 3
time step continuity errors : sum local = 8.0996e-06, global = 4.10677e-18, cumulative = 5.62736e-18
DILUPBiCGStab:  Solving for omega, Initial residual = 2.30314e-06, Final residual = 4.35765e-08, No Iterations 1
DILUPBiCGStab:  Solving for k, Initial residual = 0.993423, Final residual = 0.00540419, No Iterations 1
bounding k, min: 7.00109e-17 max: 1.23611e-16 average: 9.19957e-17
ExecutionTime = 2.64486 s  ClockTime = 3 s

Time = 121s

DILUPBiCGStab:  Solving for h, Initial residual = 0.00235586, Final residual = 9.89157e-06, No Iterations 1
GAMG:  Solving for p_rgh, Initial residual = 0.00285524, Final residual = 7.89103e-06, No Iterations 3
time step continuity errors : sum local = 8.14673e-06, global = -4.60902e-18, cumulative = 1.01834e-18
DILUPBiCGStab:  Solving for omega, Initial residual = 2.29037e-06, Final residual = 4.35604e-08, No Iterations 1
DILUPBiCGStab:  Solving for k, Initial residual = 0.993423, Final residual = 0.00540513, No Iterations 1
bounding k, min: 7.00109e-17 max: 1.23622e-16 average: 9.19962e-17
ExecutionTime = 2.66543 s  ClockTime = 3 s

Time = 122s

DILUPBiCGStab:  Solving for h, Initial residual = 0.00234258, Final residual = 9.84918e-06, No Iterations 1
GAMG:  Solving for p_rgh, Initial residual = 0.00281531, Final residual = 7.93872e-06, No Iterations 3
time step continuity errors : sum local = 8.1974e-06, global = 5.66224e-18, cumulative = 6.68058e-18
[...]
DILUPBiCGStab:  Solving for k, Initial residual = 0.993423, Final residual = 0.00541351, No Iterations 1
bounding k, min: 7.00236e-17 max: 1.23549e-16 average: 9.19954e-17
ExecutionTime = 9.59636 s  ClockTime = 10 s

Time = 471s

DILUPBiCGStab:  Solving for h, Initial residual = 0.00063656, Final residual = 1.33957e-06, No Iterations 1
GAMG:  Solving for p_rgh, Initial residual = 0.000794758, Final residual = 2.41394e-06, No Iterations 3
time step continuity errors : sum local = 2.92607e-06, global = -4.87162e-18, cumulative = -7.59014e-17
DILUPBiCGStab:  Solving for omega, Initial residual = 4.73409e-07, Final residual = 8.12152e-09, No Iterations 1
DILUPBiCGStab:  Solving for k, Initial residual = 0.993423, Final residual = 0.00541327, No Iterations 1
bounding k, min: 7.00236e-17 max: 1.23546e-16 average: 9.19951e-17
ExecutionTime = 9.61417 s  ClockTime = 10 s

Time = 472s

DILUPBiCGStab:  Solving for h, Initial residual = 0.000632585, Final residual = 1.32852e-06, No Iterations 1
GAMG:  Solving for p_rgh, Initial residual = 0.000784571, Final residual = 2.38974e-06, No Iterations 3
time step continuity errors : sum local = 2.89847e-06, global = -2.69427e-18, cumulative = -7.85957e-17
DILUPBiCGStab:  Solving for omega, Initial residual = 4.66589e-07, Final residual = 7.8198e-09, No Iterations 1
DILUPBiCGStab:  Solving for k, Initial residual = 0.993423, Final residual = 0.00541303, No Iterations 1
bounding k, min: 7.00236e-17 max: 1.23543e-16 average: 9.19949e-17
ExecutionTime = 9.63219 s  ClockTime = 10 s

Time = 473s

DILUPBiCGStab:  Solving for h, Initial residual = 0.000628622, Final residual = 1.31749e-06, No Iterations 1
GAMG:  Solving for p_rgh, Initial residual = 0.000777046, Final residual = 2.37469e-06, No Iterations 3
time step continuity errors : sum local = 2.88078e-06, global = -3.96817e-18, cumulative = -8.25639e-17
DILUPBiCGStab:  Solving for omega, Initial residual = 4.59784e-07, Final residual = 7.52903e-09, No Iterations 1
DILUPBiCGStab:  Solving for k, Initial residual = 0.993423, Final residual = 0.00541279, No Iterations 1
bounding k, min: 7.00236e-17 max: 1.2354e-16 average: 9.19947e-17
ExecutionTime = 9.6501 s  ClockTime = 10 s

Time = 474s

DILUPBiCGStab:  Solving for h, Initial residual = 0.000624676, Final residual = 1.30649e-06, No Iterations 1
GAMG:  Solving for p_rgh, Initial residual = 0.000774881, Final residual = 2.35162e-06, No Iterations 3
time step continuity errors : sum local = 2.85444e-06, global = -4.63578e-18, cumulative = -8.71997e-17
DILUPBiCGStab:  Solving for omega, Initial residual = 4.65548e-07, Final residual = 7.90749e-09, No Iterations 1
DILUPBiCGStab:  Solving for k, Initial residual = 0.993423, Final residual = 0.00541255, No Iterations 1
bounding k, min: 7.00236e-17 max: 1.23537e-16 average: 9.19945e-17
ExecutionTime = 9.66829 s  ClockTime = 10 s

Time = 475s

DILUPBiCGStab:  Solving for h, Initial residual = 0.000620752, Final residual = 1.29552e-06, No Iterations 1
GAMG:  Solving for p_rgh, Initial residual = 0.000766561, Final residual = 2.33944e-06, No Iterations 3
time step continuity errors : sum local = 2.84194e-06, global = 7.707e-19, cumulative = -8.6429e-17
DILUPBiCGStab:  Solving for omega, Initial residual = 4.53046e-07, Final residual = 7.42202e-09, No Iterations 1
DILUPBiCGStab:  Solving for k, Initial residual = 0.993423, Final residual = 0.00541231, No Iterations 1
bounding k, min: 7.00237e-17 max: 1.23534e-16 average: 9.19943e-17
ExecutionTime = 9.68604 s  ClockTime = 10 s

Time = 476s

DILUPBiCGStab:  Solving for h, Initial residual = 0.000616844, Final residual = 1.28464e-06, No Iterations 1
GAMG:  Solving for p_rgh, Initial residual = 0.000766982, Final residual = 2.3137e-06, No Iterations 3
time step continuity errors : sum local = 2.81178e-06, global = -1.29332e-18, cumulative = -8.77223e-17
DILUPBiCGStab:  Solving for omega, Initial residual = 4.60719e-07, Final residual = 7.51863e-09, No Iterations 1
DILUPBiCGStab:  Solving for k, Initial residual = 0.993423, Final residual = 0.00541206, No Iterations 1
bounding k, min: 7.00237e-17 max: 1.23532e-16 average: 9.19941e-17
ExecutionTime = 9.70405 s  ClockTime = 10 s

Time = 477s

DILUPBiCGStab:  Solving for h, Initial residual = 0.00061295, Final residual = 1.27382e-06, No Iterations 1
GAMG:  Solving for p_rgh, Initial residual = 0.000756154, Final residual = 2.29527e-06, No Iterations 3
time step continuity errors : sum local = 2.79169e-06, global = -4.32661e-18, cumulative = -9.20489e-17
DILUPBiCGStab:  Solving for omega, Initial residual = 4.60342e-07, Final residual = 7.54389e-09, No Iterations 1
DILUPBiCGStab:  Solving for k, Initial residual = 0.993423, Final residual = 0.00541182, No Iterations 1
bounding k, min: 7.00237e-17 max: 1.23529e-16 average: 9.19939e-17
ExecutionTime = 9.72246 s  ClockTime = 10 s

Time = 478s

DILUPBiCGStab:  Solving for h, Initial residual = 0.000609071, Final residual = 1.26303e-06, No Iterations 1
GAMG:  Solving for p_rgh, Initial residual = 0.000765723, Final residual = 2.27509e-06, No Iterations 3
time step continuity errors : sum local = 2.76869e-06, global = -6.25629e-18, cumulative = -9.83052e-17
DILUPBiCGStab:  Solving for omega, Initial residual = 4.923e-07, Final residual = 8.72353e-09, No Iterations 1
DILUPBiCGStab:  Solving for k, Initial residual = 0.993423, Final residual = 0.00541157, No Iterations 1
bounding k, min: 7.00237e-17 max: 1.23526e-16 average: 9.19937e-17
ExecutionTime = 9.74225 s  ClockTime = 10 s

Time = 479s

DILUPBiCGStab:  Solving for h, Initial residual = 0.000605205, Final residual = 1.25238e-06, No Iterations 1
GAMG:  Solving for p_rgh, Initial residual = 0.000745191, Final residual = 2.2593e-06, No Iterations 3
time step continuity errors : sum local = 2.75118e-06, global = -7.13921e-18, cumulative = -1.05444e-16
DILUPBiCGStab:  Solving for omega, Initial residual = 4.63615e-07, Final residual = 7.74528e-09, No Iterations 1
DILUPBiCGStab:  Solving for k, Initial residual = 0.993423, Final residual = 0.00541131, No Iterations 1
bounding k, min: 7.00238e-17 max: 1.23523e-16 average: 9.19935e-17
ExecutionTime = 9.76137 s  ClockTime = 10 s

Time = 480s

DILUPBiCGStab:  Solving for h, Initial residual = 0.000601352, Final residual = 1.24169e-06, No Iterations 1
GAMG:  Solving for p_rgh, Initial residual = 0.000738198, Final residual = 2.23574e-06, No Iterations 3
time step continuity errors : sum local = 2.72399e-06, global = -2.47178e-18, cumulative = -1.07916e-16
DILUPBiCGStab:  Solving for omega, Initial residual = 4.604e-07, Final residual = 7.58634e-09, No Iterations 1
DILUPBiCGStab:  Solving for k, Initial residual = 0.993423, Final residual = 0.00541106, No Iterations 1
bounding k, min: 7.00238e-17 max: 1.2352e-16 average: 9.19933e-17
ExecutionTime = 9.77931 s  ClockTime = 10 s

Time = 481s

DILUPBiCGStab:  Solving for h, Initial residual = 0.000597514, Final residual = 1.23113e-06, No Iterations 1
GAMG:  Solving for p_rgh, Initial residual = 0.000729192, Final residual = 2.21679e-06, No Iterations 3
time step continuity errors : sum local = 2.70237e-06, global = -1.67439e-18, cumulative = -1.09591e-16
DILUPBiCGStab:  Solving for omega, Initial residual = 4.51726e-07, Final residual = 7.39825e-09, No Iterations 1
DILUPBiCGStab:  Solving for k, Initial residual = 0.993423, Final residual = 0.00541081, No Iterations 1
bounding k, min: 7.00238e-17 max: 1.23517e-16 average: 9.19932e-17
ExecutionTime = 9.7971 s  ClockTime = 10 s

Time = 482s

DILUPBiCGStab:  Solving for h, Initial residual = 0.000593691, Final residual = 1.2206e-06, No Iterations 1
GAMG:  Solving for p_rgh, Initial residual = 0.000723875, Final residual = 2.19866e-06, No Iterations 3
time step continuity errors : sum local = 2.68152e-06, global = -1.21436e-18, cumulative = -1.10805e-16
DILUPBiCGStab:  Solving for omega, Initial residual = 4.57047e-07, Final residual = 7.78891e-09, No Iterations 1
DILUPBiCGStab:  Solving for k, Initial residual = 0.993423, Final residual = 0.00541055, No Iterations 1
bounding k, min: 7.00238e-17 max: 1.23515e-16 average: 9.1993e-17
ExecutionTime = 9.81514 s  ClockTime = 10 s

Time = 483s

DILUPBiCGStab:  Solving for h, Initial residual = 0.00058988, Final residual = 1.21013e-06, No Iterations 1
GAMG:  Solving for p_rgh, Initial residual = 0.000713839, Final residual = 2.17875e-06, No Iterations 3
time step continuity errors : sum local = 2.65876e-06, global = -2.74101e-18, cumulative = -1.13546e-16
DILUPBiCGStab:  Solving for omega, Initial residual = 4.45257e-07, Final residual = 7.24596e-09, No Iterations 1
DILUPBiCGStab:  Solving for k, Initial residual = 0.993423, Final residual = 0.00541029, No Iterations 1
bounding k, min: 7.00239e-17 max: 1.23512e-16 average: 9.19928e-17
ExecutionTime = 9.833 s  ClockTime = 10 s

Time = 484s

DILUPBiCGStab:  Solving for h, Initial residual = 0.000586083, Final residual = 1.1997e-06, No Iterations 1
GAMG:  Solving for p_rgh, Initial residual = 0.000711044, Final residual = 2.16182e-06, No Iterations 3
time step continuity errors : sum local = 2.63934e-06, global = -2.24447e-18, cumulative = -1.1579e-16
DILUPBiCGStab:  Solving for omega, Initial residual = 4.44954e-07, Final residual = 7.28745e-09, No Iterations 1
DILUPBiCGStab:  Solving for k, Initial residual = 0.993423, Final residual = 0.00541003, No Iterations 1
bounding k, min: 7.00239e-17 max: 1.23509e-16 average: 9.19926e-17
ExecutionTime = 9.85174 s  ClockTime = 10 s

Time = 485s

DILUPBiCGStab:  Solving for h, Initial residual = 0.000582301, Final residual = 1.18931e-06, No Iterations 1
GAMG:  Solving for p_rgh, Initial residual = 0.000705719, Final residual = 2.14178e-06, No Iterations 3
time step continuity errors : sum local = 2.61557e-06, global = 6.25658e-18, cumulative = -1.09534e-16
DILUPBiCGStab:  Solving for omega, Initial residual = 4.49651e-07, Final residual = 7.73087e-09, No Iterations 1
DILUPBiCGStab:  Solving for k, Initial residual = 0.993423, Final residual = 0.00540976, No Iterations 1
bounding k, min: 7.00239e-17 max: 1.23506e-16 average: 9.19925e-17
ExecutionTime = 9.87145 s  ClockTime = 10 s

Time = 486s

DILUPBiCGStab:  Solving for h, Initial residual = 0.000578536, Final residual = 1.179e-06, No Iterations 1
GAMG:  Solving for p_rgh, Initial residual = 0.000705825, Final residual = 2.12747e-06, No Iterations 3
time step continuity errors : sum local = 2.59977e-06, global = 3.64796e-18, cumulative = -1.05886e-16
DILUPBiCGStab:  Solving for omega, Initial residual = 4.50408e-07, Final residual = 7.50001e-09, No Iterations 1
DILUPBiCGStab:  Solving for k, Initial residual = 0.993423, Final residual = 0.0054095, No Iterations 1
bounding k, min: 7.00239e-17 max: 1.23503e-16 average: 9.19923e-17
ExecutionTime = 9.89069 s  ClockTime = 10 s

Time = 487s

DILUPBiCGStab:  Solving for h, Initial residual = 0.000574786, Final residual = 1.16878e-06, No Iterations 1
GAMG:  Solving for p_rgh, Initial residual = 0.000698623, Final residual = 2.10742e-06, No Iterations 3
time step continuity errors : sum local = 2.57634e-06, global = 2.72214e-18, cumulative = -1.03164e-16
DILUPBiCGStab:  Solving for omega, Initial residual = 4.5191e-07, Final residual = 7.56582e-09, No Iterations 1
DILUPBiCGStab:  Solving for k, Initial residual = 0.993423, Final residual = 0.00540924, No Iterations 1
bounding k, min: 7.00239e-17 max: 1.235e-16 average: 9.19921e-17
ExecutionTime = 9.91027 s  ClockTime = 10 s

Time = 488s

DILUPBiCGStab:  Solving for h, Initial residual = 0.000571054, Final residual = 1.15861e-06, No Iterations 1
GAMG:  Solving for p_rgh, Initial residual = 0.000697223, Final residual = 2.09182e-06, No Iterations 3
time step continuity errors : sum local = 2.55875e-06, global = -2.78535e-19, cumulative = -1.03442e-16
DILUPBiCGStab:  Solving for omega, Initial residual = 4.67625e-07, Final residual = 8.16767e-09, No Iterations 1
DILUPBiCGStab:  Solving for k, Initial residual = 0.993423, Final residual = 0.00540897, No Iterations 1
bounding k, min: 7.0024e-17 max: 1.23498e-16 average: 9.1992e-17
ExecutionTime = 9.92842 s  ClockTime = 10 s

Time = 489s

DILUPBiCGStab:  Solving for h, Initial residual = 0.000567339, Final residual = 1.14861e-06, No Iterations 1
GAMG:  Solving for p_rgh, Initial residual = 0.000685732, Final residual = 2.07021e-06, No Iterations 3
time step continuity errors : sum local = 2.53352e-06, global = 1.39527e-18, cumulative = -1.02047e-16
DILUPBiCGStab:  Solving for omega, Initial residual = 4.49871e-07, Final residual = 7.56755e-09, No Iterations 1
DILUPBiCGStab:  Solving for k, Initial residual = 0.993423, Final residual = 0.00540871, No Iterations 1
bounding k, min: 7.0024e-17 max: 1.23495e-16 average: 9.19918e-17
ExecutionTime = 9.94652 s  ClockTime = 10 s

Time = 490s

DILUPBiCGStab:  Solving for h, Initial residual = 0.000563641, Final residual = 1.13859e-06, No Iterations 1
GAMG:  Solving for p_rgh, Initial residual = 0.000678437, Final residual = 2.06165e-06, No Iterations 3
time step continuity errors : sum local = 2.52424e-06, global = 4.62092e-18, cumulative = -9.74261e-17
DILUPBiCGStab:  Solving for omega, Initial residual = 4.46866e-07, Final residual = 7.5783e-09, No Iterations 1
DILUPBiCGStab:  Solving for k, Initial residual = 0.993423, Final residual = 0.00540844, No Iterations 1
bounding k, min: 7.0024e-17 max: 1.23492e-16 average: 9.19916e-17
ExecutionTime = 9.96428 s  ClockTime = 10 s

Time = 491s

DILUPBiCGStab:  Solving for h, Initial residual = 0.000559963, Final residual = 1.12871e-06, No Iterations 1
GAMG:  Solving for p_rgh, Initial residual = 0.000672622, Final residual = 2.03431e-06, No Iterations 3
time step continuity errors : sum local = 2.49183e-06, global = 6.50797e-18, cumulative = -9.09181e-17
DILUPBiCGStab:  Solving for omega, Initial residual = 4.51966e-07, Final residual = 7.87418e-09, No Iterations 1
DILUPBiCGStab:  Solving for k, Initial residual = 0.993423, Final residual = 0.00540817, No Iterations 1
bounding k, min: 7.0024e-17 max: 1.2349e-16 average: 9.19914e-17
ExecutionTime = 9.98214 s  ClockTime = 10 s

Time = 492s

DILUPBiCGStab:  Solving for h, Initial residual = 0.000556303, Final residual = 1.11886e-06, No Iterations 1
GAMG:  Solving for p_rgh, Initial residual = 0.000664913, Final residual = 2.02526e-06, No Iterations 3
time step continuity errors : sum local = 2.48186e-06, global = -2.3063e-18, cumulative = -9.32244e-17
DILUPBiCGStab:  Solving for omega, Initial residual = 4.42466e-07, Final residual = 7.54157e-09, No Iterations 1
DILUPBiCGStab:  Solving for k, Initial residual = 0.993423, Final residual = 0.00540791, No Iterations 1
bounding k, min: 7.00241e-17 max: 1.23487e-16 average: 9.19913e-17
ExecutionTime = 9.99995 s  ClockTime = 10 s

Time = 493s

DILUPBiCGStab:  Solving for h, Initial residual = 0.000552663, Final residual = 1.10905e-06, No Iterations 1
GAMG:  Solving for p_rgh, Initial residual = 0.000658585, Final residual = 1.99882e-06, No Iterations 3
time step continuity errors : sum local = 2.45051e-06, global = 2.10737e-18, cumulative = -9.1117e-17
DILUPBiCGStab:  Solving for omega, Initial residual = 4.45644e-07, Final residual = 7.71437e-09, No Iterations 1
DILUPBiCGStab:  Solving for k, Initial residual = 0.993423, Final residual = 0.00540764, No Iterations 1
bounding k, min: 7.00241e-17 max: 1.23484e-16 average: 9.19911e-17
ExecutionTime = 10.0176 s  ClockTime = 10 s

Time = 494s

DILUPBiCGStab:  Solving for h, Initial residual = 0.000549039, Final residual = 1.0994e-06, No Iterations 1
GAMG:  Solving for p_rgh, Initial residual = 0.000655417, Final residual = 1.99086e-06, No Iterations 3
time step continuity errors : sum local = 2.44187e-06, global = -3.80536e-18, cumulative = -9.49224e-17
DILUPBiCGStab:  Solving for omega, Initial residual = 4.44056e-07, Final residual = 7.7204e-09, No Iterations 1
DILUPBiCGStab:  Solving for k, Initial residual = 0.993423, Final residual = 0.00540737, No Iterations 1
bounding k, min: 7.00241e-17 max: 1.23482e-16 average: 9.19909e-17
ExecutionTime = 10.0353 s  ClockTime = 10 s

Time = 495s

DILUPBiCGStab:  Solving for h, Initial residual = 0.000545436, Final residual = 1.08977e-06, No Iterations 1
GAMG:  Solving for p_rgh, Initial residual = 0.00065059, Final residual = 1.96788e-06, No Iterations 3
time step continuity errors : sum local = 2.41466e-06, global = -3.24919e-18, cumulative = -9.81716e-17
DILUPBiCGStab:  Solving for omega, Initial residual = 4.49185e-07, Final residual = 7.81904e-09, No Iterations 1
DILUPBiCGStab:  Solving for k, Initial residual = 0.993423, Final residual = 0.0054071, No Iterations 1
bounding k, min: 7.00241e-17 max: 1.23479e-16 average: 9.19907e-17
ExecutionTime = 10.0536 s  ClockTime = 10 s

Time = 496s

DILUPBiCGStab:  Solving for h, Initial residual = 0.000541852, Final residual = 1.0803e-06, No Iterations 1
GAMG:  Solving for p_rgh, Initial residual = 0.00064532, Final residual = 1.95996e-06, No Iterations 3
time step continuity errors : sum local = 2.40601e-06, global = 1.60606e-18, cumulative = -9.65655e-17
DILUPBiCGStab:  Solving for omega, Initial residual = 4.43802e-07, Final residual = 7.73569e-09, No Iterations 1
DILUPBiCGStab:  Solving for k, Initial residual = 0.993423, Final residual = 0.00540683, No Iterations 1
bounding k, min: 7.00241e-17 max: 1.23476e-16 average: 9.19906e-17
ExecutionTime = 10.073 s  ClockTime = 10 s

Time = 497s

DILUPBiCGStab:  Solving for h, Initial residual = 0.000538287, Final residual = 1.07083e-06, No Iterations 1
GAMG:  Solving for p_rgh, Initial residual = 0.000638833, Final residual = 1.93505e-06, No Iterations 3
time step continuity errors : sum local = 2.37505e-06, global = 2.38234e-18, cumulative = -9.41832e-17
DILUPBiCGStab:  Solving for omega, Initial residual = 4.48357e-07, Final residual = 7.81111e-09, No Iterations 1
DILUPBiCGStab:  Solving for k, Initial residual = 0.993423, Final residual = 0.00540656, No Iterations 1
bounding k, min: 7.00242e-17 max: 1.23474e-16 average: 9.19904e-17
ExecutionTime = 10.0909 s  ClockTime = 10 s

Time = 498s

DILUPBiCGStab:  Solving for h, Initial residual = 0.000534741, Final residual = 1.06154e-06, No Iterations 1
GAMG:  Solving for p_rgh, Initial residual = 0.000633499, Final residual = 1.92869e-06, No Iterations 3
time step continuity errors : sum local = 2.36821e-06, global = -3.31302e-18, cumulative = -9.74962e-17
DILUPBiCGStab:  Solving for omega, Initial residual = 4.37999e-07, Final residual = 7.6793e-09, No Iterations 1
DILUPBiCGStab:  Solving for k, Initial residual = 0.993423, Final residual = 0.00540629, No Iterations 1
bounding k, min: 7.00242e-17 max: 1.23471e-16 average: 9.19902e-17
ExecutionTime = 10.109 s  ClockTime = 10 s

Time = 499s

DILUPBiCGStab:  Solving for h, Initial residual = 0.000531216, Final residual = 1.05221e-06, No Iterations 1
GAMG:  Solving for p_rgh, Initial residual = 0.000632123, Final residual = 1.90734e-06, No Iterations 3
time step continuity errors : sum local = 2.34305e-06, global = 7.24494e-19, cumulative = -9.67717e-17
DILUPBiCGStab:  Solving for omega, Initial residual = 4.49691e-07, Final residual = 7.83218e-09, No Iterations 1
DILUPBiCGStab:  Solving for k, Initial residual = 0.993423, Final residual = 0.00540602, No Iterations 1
bounding k, min: 7.00242e-17 max: 1.23469e-16 average: 9.199e-17
ExecutionTime = 10.1268 s  ClockTime = 10 s

Time = 500s

DILUPBiCGStab:  Solving for h, Initial residual = 0.00052771, Final residual = 1.04302e-06, No Iterations 1
GAMG:  Solving for p_rgh, Initial residual = 0.000626302, Final residual = 1.89823e-06, No Iterations 3
time step continuity errors : sum local = 2.33286e-06, global = -3.44893e-18, cumulative = -1.00221e-16
DILUPBiCGStab:  Solving for omega, Initial residual = 4.46475e-07, Final residual = 7.8868e-09, No Iterations 1
DILUPBiCGStab:  Solving for k, Initial residual = 0.993423, Final residual = 0.00540575, No Iterations 1
bounding k, min: 7.00242e-17 max: 1.23466e-16 average: 9.19899e-17
ExecutionTime = 10.1931 s  ClockTime = 10 s

End

